# generated using pymatgen
data_MoH4C7NO4
_symmetry_space_group_name_H-M   'P 1'
_cell_length_a   3.93947491
_cell_length_b   9.59495591
_cell_length_c   10.29706536
_cell_angle_alpha   74.93133461
_cell_angle_beta   86.60404333
_cell_angle_gamma   80.44824196
_symmetry_Int_Tables_number   1
_chemical_formula_structural   MoH4C7NO4
_chemical_formula_sum   'Mo2 H8 C14 N2 O8'
_cell_volume   370.57283589
_cell_formula_units_Z   2
loop_
 _symmetry_equiv_pos_site_id
 _symmetry_equiv_pos_as_xyz
  1  'x, y, z'
loop_
 _atom_site_type_symbol
 _atom_site_label
 _atom_site_symmetry_multiplicity
 _atom_site_fract_x
 _atom_site_fract_y
 _atom_site_fract_z
 _atom_site_occupancy
 _atom_site_hle17_bader_spin_density
 _atom_site_hle17_ddec_charge
 _atom_site_hle17_ddec_spin_density
 _atom_site_hle17_ddec_sum_bond_order
 _atom_site_hle17_magmom
 _atom_site_hse06_10hf_bader_spin_density
 _atom_site_hse06_10hf_ddec_charge
 _atom_site_hse06_10hf_ddec_spin_density
 _atom_site_hse06_10hf_ddec_sum_bond_order
 _atom_site_hse06_10hf_magmom
 _atom_site_hse06_bader_spin_density
 _atom_site_hse06_ddec_charge
 _atom_site_hse06_ddec_spin_density
 _atom_site_hse06_ddec_sum_bond_order
 _atom_site_hse06_magmom
 _atom_site_pbe_bader_spin_density
 _atom_site_pbe_cm5_charge
 _atom_site_pbe_ddec_charge
 _atom_site_pbe_ddec_spin_density
 _atom_site_pbe_ddec_sum_bond_order
 _atom_site_pbe_magmom
Mo  Mo0  1  0.11264613  0.16858979  0.26428359  1  0  2.092613  0  4.064559  0  0  2.08799  0  4.593557  0  0  2.187006  0  4.563323  0  0  1.604911  2.015529  0  4.622622  0
Mo  Mo1  1  0.88731668  0.83140619  0.73571524  1  0  2.092609  0  4.064357  0  0  2.087846  0  4.593603  0  0  2.186865  0  4.563386  0  0  1.604954  2.015378  0  4.622708  0
H  H2  1  0.76540203  0.44208684  0.53753844  1  0  0.099305  0  0.963559  0  0  0.108733  0  1.02765  0  0  0.111551  0  1.025739  0  0  0.105759  0.10734  0  1.028038  0
H  H3  1  0.23459278  0.55791222  0.46246006  1  0  0.099305  0  0.963534  0  0  0.108738  0  1.027621  0  0  0.111556  0  1.025709  0  0  0.105782  0.107344  0  1.028006  0
H  H4  1  0.52423096  0.55466062  0.72258281  1  0  0.099123  0  0.972593  0  0  0.100332  0  1.047961  0  0  0.103549  0  1.046734  0  0  0.100035  0.097967  0  1.049155  0
H  H5  1  0.47577798  0.44534160  0.27741663  1  0  0.099141  0  0.972547  0  0  0.100352  0  1.047916  0  0  0.103565  0  1.046697  0  0  0.100044  0.098005  0  1.0491  0
H  H6  1  0.43994029  0.39556049  0.95140860  1  0  0.109339  0  0.937528  0  0  0.118788  0  0.996163  0  0  0.121433  0  0.993766  0  0  0.109533  0.116523  0  0.998404  0
H  H7  1  0.56008392  0.60444163  0.04859156  1  0  0.109333  0  0.937551  0  0  0.118796  0  0.996189  0  0  0.121445  0  0.993786  0  0  0.10952  0.116532  0  0.998426  0
H  H8  1  0.61869158  0.12528613  0.99607101  1  0  0.121437  0  0.950528  0  0  0.12609  0  1.018859  0  0  0.130526  0  1.01613  0  0  0.107612  0.123112  0  1.020668  0
H  H9  1  0.38132029  0.87471499  0.00392864  1  0  0.121433  0  0.950507  0  0  0.126089  0  1.018823  0  0  0.130526  0  1.016093  0  0  0.107646  0.123108  0  1.020626  0
C  C10  1  0.92241358  0.16111179  0.54639650  1  0  0.520245  0  3.775182  0  0  0.4863  0  4.059338  0  0  0.519105  0  4.055693  0  0  0.230173  0.463772  0  4.06131  0
C  C11  1  0.07758478  0.83888393  0.45360659  1  0  0.520357  0  3.775186  0  0  0.486332  0  4.059465  0  0  0.519137  0  4.05582  0  0  0.230232  0.463804  0  4.061439  0
C  C12  1  0.81378382  0.22196209  0.66022210  1  0  -0.166769  0  3.773237  0  0  -0.157377  0  4.016769  0  0  -0.171724  0  4.041383  0  0  -0.02596  -0.148522  0  4.001544  0
C  C13  1  0.18621435  0.77803480  0.33977393  1  0  -0.166851  0  3.773319  0  0  -0.157447  0  4.016884  0  0  -0.171792  0  4.041498  0  0  -0.025986  -0.148588  0  4.001663  0
C  C14  1  0.72965155  0.37449043  0.63854696  1  0  -0.045757  0  3.722291  0  0  -0.071444  0  3.976299  0  0  -0.068725  0  3.997219  0  0  -0.080111  -0.074402  0  3.96276  0
C  C15  1  0.27034505  0.62551079  0.36145198  1  0  -0.04573  0  3.722303  0  0  -0.071409  0  3.976309  0  0  -0.068689  0  3.997227  0  0  -0.080109  -0.074362  0  3.962774  0
C  C16  1  0.59644483  0.43691127  0.74179353  1  0  -0.067887  0  3.73327  0  0  -0.088702  0  3.997593  0  0  -0.095159  0  4.020716  0  0  -0.087627  -0.084713  0  3.982052  0
C  C17  1  0.40355980  0.56308882  0.25820455  1  0  -0.067815  0  3.733097  0  0  -0.088631  0  3.997433  0  0  -0.095092  0  4.020576  0  0  -0.087601  -0.084657  0  3.981898  0
C  C18  1  0.55081886  0.34754176  0.87053424  1  0  0.005031  0  3.690676  0  0  -0.010543  0  3.942775  0  0  -0.006848  0  3.962183  0  0  -0.064128  -0.011282  0  3.92841  0
C  C19  1  0.44919479  0.65246152  0.12946585  1  0  0.004915  0  3.690711  0  0  -0.010707  0  3.942861  0  0  -0.007015  0  3.962267  0  0  -0.064163  -0.011442  0  3.928499  0
C  C20  1  0.77530713  0.13258626  0.79210700  1  0  0.334584  0  3.775434  0  0  0.324151  0  4.039268  0  0  0.34047  0  4.053876  0  0  0.091665  0.31375  0  4.028811  0
C  C21  1  0.22468692  0.86741497  0.20789198  1  0  0.334494  0  3.775546  0  0  0.324054  0  4.039376  0  0  0.340371  0  4.053987  0  0  0.091591  0.31365  0  4.028929  0
C  C22  1  0.64538096  0.19661571  0.89608076  1  0  -0.162163  0  3.675705  0  0  -0.189819  0  3.937775  0  0  -0.197978  0  3.956542  0  0  -0.091139  -0.18467  0  3.924175  0
C  C23  1  0.35462282  0.80338651  0.10392170  1  0  -0.162054  0  3.675675  0  0  -0.189676  0  3.937729  0  0  -0.197829  0  3.956493  0  0  -0.091119  -0.18452  0  3.924122  0
N  N24  1  0.94413196  0.01959059  0.55813943  1  0  -0.380252  0  3.274877  0  0  -0.35849  0  3.57846  0  0  -0.37928  0  3.595778  0  0  -0.303393  -0.343804  0  3.566459  0
N  N25  1  0.05586682  0.98040406  0.44186197  1  0  -0.380242  0  3.27489  0  0  -0.358479  0  3.578494  0  0  -0.379269  0  3.59581  0  0  -0.303396  -0.343797  0  3.566496  0
O  O26  1  0.98692532  0.24865969  0.42902911  1  0  -0.561168  0  2.036748  0  0  -0.517362  0  2.282643  0  0  -0.546197  0  2.277422  0  0  -0.315185  -0.49597  0  2.285141  0
O  O27  1  0.01306721  0.75133825  0.57097358  1  0  -0.561242  0  2.036879  0  0  -0.517396  0  2.282845  0  0  -0.54623  0  2.277619  0  0  -0.315231  -0.495999  0  2.285337  0
O  O28  1  0.86122267  0.98502176  0.82435841  1  0  -0.56163  0  2.157596  0  0  -0.527869  0  2.425711  0  0  -0.558257  0  2.425587  0  0  -0.347811  -0.506424  0  2.425403  0
O  O29  1  0.13876952  0.01497728  0.17564306  1  0  -0.561554  0  2.157731  0  0  -0.527802  0  2.425814  0  0  -0.558195  0  2.425698  0  0  -0.347771  -0.506352  0  2.425499  0
O  O30  1  0.55739873  0.15769963  0.28233032  1  0  -0.821176  0  1.784963  0  0  -0.831287  0  2.088864  0  0  -0.867093  0  2.08511  0  0  -0.554101  -0.80533  0  2.093341  0
O  O31  1  0.44261206  0.84230477  0.71766762  1  0  -0.821113  0  1.785018  0  0  -0.831175  0  2.088978  0  0  -0.866957  0  2.085202  0  0  -0.554152  -0.805225  0  2.093466  0
O  O32  1  0.99763498  0.32532034  0.14158787  1  0  -0.614948  0  1.413693  0  0  -0.599522  0  1.645201  0  0  -0.622396  0  1.639011  0  0  -0.480244  -0.582909  0  1.650846  0
O  O33  1  0.00235723  0.67467870  0.85841262  1  0  -0.614913  0  1.413613  0  0  -0.599451  0  1.64515  0  0  -0.622381  0  1.639008  0  0  -0.48023  -0.582846  0  1.650815  0
