# generated using pymatgen
data_MnH6(CO2)4
_symmetry_space_group_name_H-M   'P 1'
_cell_length_a   7.65379606
_cell_length_b   7.65378504
_cell_length_c   7.79403157
_cell_angle_alpha   87.52430543
_cell_angle_beta   87.52688597
_cell_angle_gamma   73.79377711
_symmetry_Int_Tables_number   1
_chemical_formula_structural   MnH6(CO2)4
_chemical_formula_sum   'Mn2 H12 C8 O16'
_cell_volume   437.79610180
_cell_formula_units_Z   2
loop_
 _symmetry_equiv_pos_site_id
 _symmetry_equiv_pos_as_xyz
  1  'x, y, z'
loop_
 _atom_site_type_symbol
 _atom_site_label
 _atom_site_symmetry_multiplicity
 _atom_site_fract_x
 _atom_site_fract_y
 _atom_site_fract_z
 _atom_site_occupancy
 _atom_site_pbe_cm5_charge
 _atom_site_pbe_ddec_charge
 _atom_site_pbe_ddec_spin_density
 _atom_site_pbe_ddec_sum_bond_order
 _atom_site_pbe_magmom
Mn  Mn0  1  0.99999613  0.49999762  0.99999330  1  0.594325  1.003086  4.697078  2.284887  4.512
Mn  Mn1  1  0.50000484  0.00000481  0.49998696  1  0.594274  1.002976  4.697077  2.284961  4.512
H  H2  1  0.67645559  0.68128435  0.23991405  1  0.126382  0.03873  0.000463  0.993782  0.0
H  H3  1  0.31870409  0.32355448  0.26009663  1  0.126393  0.038736  0.000463  0.993873  0.0
H  H4  1  0.32355321  0.31869717  0.76009378  1  0.126384  0.038623  0.000463  0.993916  0.0
H  H5  1  0.68124804  0.67646402  0.73990695  1  0.12637  0.038693  0.000463  0.993934  0.0
H  H6  1  0.12334832  0.85956816  0.07375233  1  0.122972  0.021206  9.9e-05  0.993656  0.0
H  H7  1  0.14042769  0.87665179  0.42623726  1  0.122987  0.02119  9.8e-05  0.993637  0.0
H  H8  1  0.87665954  0.14042022  0.92625523  1  0.123  0.021254  9.8e-05  0.993612  0.0
H  H9  1  0.85957007  0.12335542  0.57377120  1  0.122951  0.021115  9.9e-05  0.993635  0.0
H  H10  1  0.38635360  0.90070672  0.12274954  1  0.300377  0.340737  5.3e-05  1.003816  0.001
H  H11  1  0.09926173  0.61366120  0.37724807  1  0.30051  0.341188  5.3e-05  1.00358  0.001
H  H12  1  0.61365680  0.09928177  0.87724123  1  0.300386  0.340759  5.3e-05  1.003791  0.001
H  H13  1  0.90074462  0.38634370  0.62275369  1  0.300531  0.341139  5.3e-05  1.003739  0.001
C  C14  1  0.79076141  0.70842453  0.30547589  1  0.170441  0.516823  0.013215  4.138783  0.012
C  C15  1  0.29157115  0.20924556  0.19453909  1  0.170298  0.516598  0.013215  4.138473  0.012
C  C16  1  0.20925114  0.29156548  0.69452498  1  0.170354  0.516831  0.013213  4.138894  0.012
C  C17  1  0.70840388  0.79075898  0.80545896  1  0.17052  0.516971  0.013211  4.138454  0.012
C  C18  1  0.24530153  0.75181254  0.03115558  1  0.183615  0.498889  0.011412  4.103989  0.01
C  C19  1  0.24815639  0.75469245  0.46883927  1  0.183671  0.499079  0.011415  4.103375  0.01
C  C20  1  0.75470391  0.24816325  0.96885266  1  0.183575  0.498803  0.011419  4.103742  0.01
C  C21  1  0.75183706  0.24531590  0.53116677  1  0.183646  0.499004  0.011404  4.103835  0.01
O  O22  1  0.95114636  0.61144717  0.26043382  1  -0.308432  -0.532096  0.042053  2.404205  0.027
O  O23  1  0.38855416  0.04885199  0.23955359  1  -0.308323  -0.531752  0.042052  2.404195  0.027
O  O24  1  0.04886057  0.38854389  0.73955570  1  -0.308447  -0.532026  0.042051  2.40417  0.027
O  O25  1  0.61144313  0.95115654  0.76044072  1  -0.30842  -0.531939  0.042048  2.404321  0.027
O  O26  1  0.76166711  0.82848444  0.41641824  1  -0.308246  -0.52279  0.043433  2.353244  0.029
O  O27  1  0.17152724  0.23831943  0.08356159  1  -0.308158  -0.522769  0.043435  2.35279  0.029
O  O28  1  0.23834805  0.17153338  0.58356330  1  -0.308135  -0.522722  0.04343  2.353246  0.029
O  O29  1  0.82846078  0.76167335  0.91642358  1  -0.308282  -0.52294  0.043435  2.352747  0.029
O  O30  1  0.23250328  0.61126554  0.96616350  1  -0.274499  -0.452998  0.035619  2.341922  0.021
O  O31  1  0.38874448  0.76747868  0.53384415  1  -0.274534  -0.453158  0.03562  2.341069  0.021
O  O32  1  0.76749195  0.38873737  0.03384270  1  -0.274483  -0.45306  0.035626  2.341553  0.021
O  O33  1  0.61127953  0.23252446  0.46617486  1  -0.274438  -0.452924  0.035622  2.341886  0.021
O  O34  1  0.40210440  0.78174274  0.05450479  1  -0.309811  -0.410129  0.005114  2.394108  0.006
O  O35  1  0.21821824  0.59790128  0.44551064  1  -0.309925  -0.41051  0.005113  2.394453  0.006
O  O36  1  0.59790485  0.21823741  0.94550052  1  -0.309805  -0.410026  0.005115  2.394236  0.006
O  O37  1  0.78178416  0.40211171  0.55449607  1  -0.310024  -0.410591  0.005111  2.394305  0.006
