# generated using pymatgen
data_CuH8C6(BrN)2
_symmetry_space_group_name_H-M   'P 1'
_cell_length_a   6.87482006
_cell_length_b   7.47167283
_cell_length_c   9.72391700
_cell_angle_alpha   104.24810270
_cell_angle_beta   89.99783861
_cell_angle_gamma   117.32892477
_symmetry_Int_Tables_number   1
_chemical_formula_structural   CuH8C6(BrN)2
_chemical_formula_sum   'Cu2 H16 C12 Br4 N4'
_cell_volume   426.36684982
_cell_formula_units_Z   2
loop_
 _symmetry_equiv_pos_site_id
 _symmetry_equiv_pos_as_xyz
  1  'x, y, z'
loop_
 _atom_site_type_symbol
 _atom_site_label
 _atom_site_symmetry_multiplicity
 _atom_site_fract_x
 _atom_site_fract_y
 _atom_site_fract_z
 _atom_site_occupancy
 _atom_site_hle17_ddec_charge
 _atom_site_hle17_ddec_spin_density
 _atom_site_hle17_ddec_sum_bond_order
 _atom_site_hle17_magmom
 _atom_site_hse06_10hf_ddec_charge
 _atom_site_hse06_10hf_ddec_spin_density
 _atom_site_hse06_10hf_ddec_sum_bond_order
 _atom_site_hse06_10hf_magmom
 _atom_site_hse06_ddec_charge
 _atom_site_hse06_ddec_spin_density
 _atom_site_hse06_ddec_sum_bond_order
 _atom_site_hse06_magmom
 _atom_site_pbe_cm5_charge
 _atom_site_pbe_ddec_charge
 _atom_site_pbe_ddec_spin_density
 _atom_site_pbe_ddec_sum_bond_order
 _atom_site_pbe_magmom
Cu  Cu0  1  0.46247943  0.92491840  0.17625488  1  0.616602  -0.528166  1.92975  -0.387  0.598241  -0.651202  2.318121  -0.51  0.686814  -0.725614  2.248791  -0.596  0.527679  0.55102  -0.604599  2.359923  -0.461
Cu  Cu1  1  0.53752172  0.07508230  0.82374320  1  0.616605  -0.528151  1.929762  -0.387  0.598206  -0.651201  2.318141  -0.51  0.686743  -0.7256  2.248803  -0.596  0.527656  0.55099  -0.604588  2.359941  -0.461
H  H2  1  0.66196151  0.68613291  0.00381343  1  0.093338  -0.001335  0.991236  -0.002  0.097753  -0.001646  1.063193  -0.002  0.101263  -0.001255  1.059558  -0.001  0.099736  0.095285  -0.002013  1.065943  -0.002
H  H3  1  0.97483618  0.31366423  0.99621598  1  0.09256  -0.001337  0.992022  -0.002  0.09792  -0.001643  1.062974  -0.002  0.101389  -0.001253  1.05936  -0.001  0.09949  0.095385  -0.00201  1.065781  -0.002
H  H4  1  0.33804747  0.31388348  0.99618665  1  0.093305  -0.001334  0.991412  -0.002  0.097686  -0.001645  1.063369  -0.002  0.101185  -0.001254  1.059737  -0.001  0.099719  0.09522  -0.002012  1.066118  -0.002
H  H5  1  0.02517096  0.68633973  0.00377141  1  0.092695  -0.001337  0.991898  -0.002  0.097971  -0.001642  1.062942  -0.002  0.101505  -0.001252  1.059265  -0.001  0.099488  0.095436  -0.002009  1.065746  -0.002
H  H6  1  0.96750651  0.23256785  0.52237480  1  0.125202  0.000391  0.952324  0.0  0.14668  0.00023  1.009932  0.0  0.148645  0.00024  1.009505  0.0  0.093703  0.145261  0.000206  1.010316  0.0
H  H7  1  0.73567789  0.76692832  0.47768531  1  0.124783  0.000388  0.952417  0.0  0.147109  0.000229  1.0091  0.0  0.149044  0.000239  1.008701  0.0  0.093916  0.14567  0.000205  1.009513  0.0
H  H8  1  0.03250255  0.76743122  0.47762913  1  0.125228  0.000388  0.952292  0.0  0.14671  0.00023  1.009896  0.0  0.148674  0.00024  1.009471  0.0  0.093711  0.14529  0.000206  1.010281  0.0
H  H9  1  0.26432446  0.23306605  0.52231771  1  0.124786  0.000398  0.952319  0.0  0.147109  0.000229  1.00903  0.0  0.149035  0.000239  1.008646  0.0  0.093905  0.145684  0.000205  1.009419  0.0
H  H10  1  0.71384869  0.15440690  0.42111513  1  0.106836  0.000274  0.998418  0.0  0.121678  0.0003  1.073163  0.0  0.122466  0.000509  1.072156  0.0  0.084422  0.120477  0.000134  1.074501  0.0
H  H11  1  0.55969840  0.84482168  0.57874771  1  0.106599  0.000268  0.998319  0.0  0.122282  0.000295  1.072054  0.0  0.123072  0.000502  1.071046  0.0  0.084684  0.121071  0.00013  1.073391  0.0
H  H12  1  0.28614738  0.84559529  0.57889146  1  0.10683  0.000271  0.998483  0.0  0.121653  0.0003  1.073238  0.0  0.122445  0.000509  1.072222  0.0  0.084427  0.120452  0.000134  1.074576  0.0
H  H13  1  0.44030575  0.15518211  0.42125610  1  0.10659  0.000277  0.998244  0.0  0.122315  0.000295  1.071956  0.0  0.123111  0.000502  1.070946  0.0  0.084686  0.121104  0.00013  1.073293  0.0
H  H14  1  0.96068915  0.36513847  0.39594263  1  0.13951  -0.000842  0.951414  0.0  0.164606  -0.000902  1.006082  0.0  0.167016  -0.000673  1.004839  0.0  0.094211  0.162824  -0.001053  1.007093  0.0
H  H15  1  0.59675029  0.63447122  0.60414375  1  0.139458  -0.000866  0.951967  0.0  0.164522  -0.000921  1.006859  0.0  0.166917  -0.000688  1.005646  0.0  0.093998  0.162743  -0.001076  1.007864  0.0
H  H16  1  0.03932241  0.63486853  0.60405461  1  0.139503  -0.000837  0.951468  0.0  0.164616  -0.000902  1.006103  0.0  0.167027  -0.000673  1.004857  0.0  0.0942  0.162833  -0.001053  1.007116  0.0
H  H17  1  0.40324837  0.36552157  0.39585999  1  0.139455  -0.00085  0.95182  0.0  0.164528  -0.000921  1.00672  0.0  0.166924  -0.000688  1.00551  0.0  0.093993  0.162748  -0.001076  1.007725  0.0
C  C18  1  0.79693499  0.79453126  0.08911722  1  0.08685  -0.000969  3.668121  -0.001  0.053928  -0.00255  3.926668  -0.002  0.059702  -0.000794  3.941202  -0.001  0.039364  0.050135  -0.00413  3.91779  -0.004
C  C19  1  0.00172750  0.20534803  0.91088787  1  0.08734  -0.000952  3.668696  -0.001  0.053839  -0.002548  3.926645  -0.002  0.059617  -0.000792  3.941253  -0.001  0.039648  0.050122  -0.004128  3.917778  -0.004
C  C20  1  0.20306285  0.20548029  0.91089633  1  0.086961  -0.000937  3.668133  -0.001  0.054117  -0.002552  3.926526  -0.002  0.059904  -0.000797  3.941034  -0.001  0.039445  0.050328  -0.004131  3.917626  -0.004
C  C21  1  0.99827053  0.79464643  0.08910591  1  0.087126  -0.000918  3.668574  -0.001  0.053683  -0.002547  3.926614  -0.002  0.059412  -0.00079  3.941187  -0.001  0.039629  0.04997  -0.004127  3.917757  -0.004
C  C22  1  0.92799176  0.06269522  0.30031570  1  0.231025  -0.003222  3.626259  -0.003  0.236924  -0.004643  3.867858  -0.004  0.243461  -0.002795  3.88749  -0.003  0.131193  0.232514  -0.006229  3.855457  -0.006
C  C23  1  0.86550957  0.93710165  0.69967429  1  0.232648  -0.003239  3.623927  -0.003  0.238682  -0.004658  3.865636  -0.004  0.245258  -0.00281  3.885215  -0.003  0.13216  0.234209  -0.006245  3.853318  -0.006
C  C24  1  0.07201238  0.93730856  0.69968914  1  0.231202  -0.003204  3.626253  -0.003  0.236992  -0.004641  3.867962  -0.004  0.243533  -0.002794  3.887595  -0.003  0.131224  0.232574  -0.006228  3.855557  -0.006
C  C25  1  0.13447761  0.06289438  0.30032082  1  0.232887  -0.003217  3.623953  -0.003  0.238916  -0.004657  3.865614  -0.004  0.245494  -0.002809  3.885192  -0.003  0.132159  0.234443  -0.006243  3.853304  -0.006
C  C26  1  0.89046703  0.21051948  0.41669292  1  -0.370651  -0.00255  3.719094  -0.003  -0.454403  -0.002513  3.951964  -0.003  -0.457992  -0.001708  3.960617  -0.002  -0.246952  -0.451379  -0.003349  3.945902  -0.003
C  C27  1  0.68056967  0.78905489  0.58331555  1  -0.370249  -0.002584  3.718566  -0.003  -0.455342  -0.002553  3.951204  -0.003  -0.458942  -0.00174  3.95989  -0.002  -0.247455  -0.452221  -0.003391  3.945087  -0.003
C  C28  1  0.10954226  0.78948589  0.58331017  1  -0.370649  -0.002551  3.719029  -0.003  -0.454372  -0.002513  3.951925  -0.003  -0.457958  -0.001709  3.960569  -0.002  -0.246959  -0.45134  -0.00335  3.945864  -0.003
C  C29  1  0.31941114  0.21092547  0.41667550  1  -0.370404  -0.002632  3.718389  -0.003  -0.455537  -0.002552  3.951022  -0.003  -0.459111  -0.001739  3.959653  -0.002  -0.247467  -0.452447  -0.003392  3.944932  -0.003
Br  Br30  1  0.63525647  0.27070455  0.12989025  1  -0.449276  -0.150106  1.11538  -0.152  -0.453455  -0.099856  1.440756  -0.105  -0.489866  -0.076544  1.417062  -0.087  -0.223357  -0.430443  -0.115133  1.457645  -0.115
Br  Br31  1  0.36472587  0.72927887  0.87010859  1  -0.449322  -0.150105  1.115343  -0.152  -0.453449  -0.09989  1.440663  -0.105  -0.48987  -0.076538  1.416986  -0.087  -0.223344  -0.430442  -0.115128  1.457553  -0.115
Br  Br32  1  0.30492344  0.60944144  0.25490438  1  -0.42954  -0.18327  0.960622  -0.184  -0.433274  -0.121526  1.258281  -0.127  -0.467776  -0.096197  1.238895  -0.107  -0.247827  -0.413708  -0.1354  1.272187  -0.135
Br  Br33  1  0.69508566  0.39055770  0.74509236  1  -0.429522  -0.18328  0.960634  -0.184  -0.433248  -0.121537  1.258297  -0.127  -0.467739  -0.096206  1.238911  -0.108  -0.247818  -0.413687  -0.135408  1.272207  -0.135
N  N34  1  0.76342679  0.93042637  0.19246746  1  -0.281298  -0.060952  3.314842  -0.079  -0.223598  -0.051962  3.58328  -0.07  -0.249802  -0.044335  3.606521  -0.064  -0.324304  -0.209232  -0.055995  3.570539  -0.072
N  N35  1  0.83270292  0.06928775  0.80752052  1  -0.281674  -0.060972  3.314119  -0.079  -0.224058  -0.051908  3.582976  -0.07  -0.25026  -0.044298  3.60619  -0.064  -0.324318  -0.209693  -0.055927  3.570232  -0.073
N  N36  1  0.23656719  0.06957745  0.80753430  1  -0.281635  -0.060961  3.314986  -0.079  -0.223854  -0.051963  3.583348  -0.07  -0.250051  -0.044335  3.60657  -0.064  -0.324382  -0.209486  -0.055998  3.570603  -0.072
N  N37  1  0.16729623  0.93071769  0.19247538  1  -0.281703  -0.060979  3.31409  -0.079  -0.224076  -0.051911  3.582901  -0.07  -0.250292  -0.044299  3.60615  -0.064  -0.324263  -0.209707  -0.05593  3.570162  -0.073
