# generated using pymatgen
data_InH8C10N2F3
_symmetry_space_group_name_H-M   'P 1'
_cell_length_a   4.23665325
_cell_length_b   8.15095164
_cell_length_c   8.15094872
_cell_angle_alpha   81.75552429
_cell_angle_beta   74.96023994
_cell_angle_gamma   74.96027055
_symmetry_Int_Tables_number   1
_chemical_formula_structural   InH8C10N2F3
_chemical_formula_sum   'In1 H8 C10 N2 F3'
_cell_volume   261.64726562
_cell_formula_units_Z   1
loop_
 _symmetry_equiv_pos_site_id
 _symmetry_equiv_pos_as_xyz
  1  'x, y, z'
loop_
 _atom_site_type_symbol
 _atom_site_label
 _atom_site_symmetry_multiplicity
 _atom_site_fract_x
 _atom_site_fract_y
 _atom_site_fract_z
 _atom_site_occupancy
 _atom_site_hle17_bader_spin_density
 _atom_site_hle17_ddec_charge
 _atom_site_hle17_ddec_spin_density
 _atom_site_hle17_ddec_sum_bond_order
 _atom_site_hle17_magmom
 _atom_site_hse06_10hf_bader_spin_density
 _atom_site_hse06_10hf_ddec_charge
 _atom_site_hse06_10hf_ddec_spin_density
 _atom_site_hse06_10hf_ddec_sum_bond_order
 _atom_site_hse06_10hf_magmom
 _atom_site_hse06_bader_spin_density
 _atom_site_hse06_ddec_charge
 _atom_site_hse06_ddec_spin_density
 _atom_site_hse06_ddec_sum_bond_order
 _atom_site_hse06_magmom
 _atom_site_pbe_bader_spin_density
 _atom_site_pbe_cm5_charge
 _atom_site_pbe_ddec_charge
 _atom_site_pbe_ddec_spin_density
 _atom_site_pbe_ddec_sum_bond_order
 _atom_site_pbe_magmom
In  In0  1  0.00000140  0.49976819  0.50023117  1  0  1.674567  0  2.35339  0  0  1.46408  0  2.886021  0  0  1.532419  0  2.811823  0  0  0.724122  1.416242  0  2.936834  0
H  H1  1  0.98837394  0.88000417  0.52334269  1  0  0.083044  0  0.948487  0  0  0.089518  0  1.015838  0  0  0.092141  0  1.013668  0  0  0.11998  0.087566  0  1.01742  0
H  H2  1  0.60818823  0.52343744  0.87976968  1  0  0.084423  0  0.947714  0  0  0.090536  0  1.015346  0  0  0.093174  0  1.0131  0  0  0.120781  0.088598  0  1.016918  0
H  H3  1  0.01162047  0.47665665  0.11999495  1  0  0.083098  0  0.948483  0  0  0.089592  0  1.015789  0  0  0.092235  0  1.0136  0  0  0.120018  0.087646  0  1.017369  0
H  H4  1  0.39180676  0.12023125  0.47656462  1  0  0.084415  0  0.947723  0  0  0.090534  0  1.015342  0  0  0.093174  0  1.013097  0  0  0.120777  0.088599  0  1.016912  0
H  H5  1  0.78481364  0.10606773  0.73299239  1  0  0.139347  0  0.979257  0  0  0.142514  0  1.046498  0  0  0.147708  0  1.042471  0  0  0.105697  0.138757  0  1.049552  0
H  H6  1  0.37606638  0.73286128  0.10601783  1  0  0.138467  0  0.976668  0  0  0.141253  0  1.04452  0  0  0.146407  0  1.040532  0  0  0.105384  0.137507  0  1.047603  0
H  H7  1  0.21518325  0.26700800  0.89393138  1  0  0.139316  0  0.979256  0  0  0.142506  0  1.046486  0  0  0.1477  0  1.04246  0  0  0.10569  0.138754  0  1.049539  0
H  H8  1  0.62393297  0.89398336  0.26713826  1  0  0.138481  0  0.976647  0  0  0.141276  0  1.044498  0  0  0.14643  0  1.040509  0  0  0.105394  0.137532  0  1.047575  0
C  C9  1  0.85219200  0.85504639  0.65415713  1  0  0.133348  0  3.705319  0  0  0.101154  0  3.957854  0  0  0.1083  0  3.97704  0  0  0.057629  0.096623  0  3.944688  0
C  C10  1  0.63855737  0.65416265  0.85493326  1  0  0.13079  0  3.706417  0  0  0.098831  0  3.95896  0  0  0.105973  0  3.978143  0  0  0.055095  0.094291  0  3.945778  0
C  C11  1  0.14780313  0.34584318  0.14495367  1  0  0.133197  0  3.705379  0  0  0.100984  0  3.957936  0  0  0.108111  0  3.977117  0  0  0.057564  0.096451  0  3.944782  0
C  C12  1  0.36143992  0.14506911  0.34583696  1  0  0.130808  0  3.706411  0  0  0.098859  0  3.958953  0  0  0.106  0  3.978134  0  0  0.055141  0.09432  0  3.945771  0
C  C13  1  0.73449010  0.97921041  0.76984484  1  0  -0.154574  0  3.65839  0  0  -0.172138  0  3.905604  0  0  -0.179894  0  3.925142  0  0  -0.075943  -0.167123  0  3.892469  0
C  C14  1  0.51612724  0.76985864  0.97908027  1  0  -0.152992  0  3.654722  0  0  -0.170141  0  3.901939  0  0  -0.177853  0  3.921481  0  0  -0.075162  -0.165167  0  3.888894  0
C  C15  1  0.26550728  0.23015581  0.02078955  1  0  -0.154436  0  3.658317  0  0  -0.172022  0  3.905514  0  0  -0.179779  0  3.92506  0  0  -0.075916  -0.167012  0  3.892384  0
C  C16  1  0.48387300  0.02091997  0.23014072  1  0  -0.152971  0  3.654733  0  0  -0.170149  0  3.901969  0  0  -0.177861  0  3.921508  0  0  -0.07518  -0.165173  0  3.888916  0
C  C17  1  0.56369833  0.93621333  0.93615252  1  0  0.1146  0  3.719086  0  0  0.126166  0  3.948073  0  0  0.130281  0  3.969434  0  0  0.025381  0.123621  0  3.933408  0
C  C18  1  0.43629939  0.06384827  0.06378799  1  0  0.114494  0  3.71913  0  0  0.126071  0  3.948127  0  0  0.130185  0  3.969487  0  0  0.025345  0.12353  0  3.933462  0
N  N19  1  0.80423080  0.69578772  0.69579681  1  0  -0.365432  0  3.317953  0  0  -0.284981  0  3.57709  0  0  -0.306669  0  3.597268  0  0  -0.306443  -0.270347  0  3.563043  0
N  N20  1  0.19576519  0.30420407  0.30421169  1  0  -0.365398  0  3.31802  0  0  -0.284943  0  3.577157  0  0  -0.306632  0  3.597343  0  0  -0.306443  -0.270315  0  3.563125  0
F  F21  1  0.00002312  0.30606967  0.69392627  1  0  -0.658133  0  0.752669  0  0  -0.595238  0  0.932535  0  0  -0.61682  0  0.911307  0  0  -0.339832  -0.579694  0  0.946817  0
F  F22  1  0.00000132  0.69327414  0.30672721  1  0  -0.658593  0  0.753378  0  0  -0.595331  0  0.933324  0  0  -0.616865  0  0.912039  0  0  -0.340757  -0.579725  0  0.947657  0
F  F23  1  0.50000061  0.50032274  0.49967779  1  0  -0.659866  0  0.898319  0  0  -0.59893  0  1.127717  0  0  -0.617863  0  1.096607  0  0  -0.308322  -0.58548  0  1.148999  0
