# generated using pymatgen
data_CuH6C5S4I
_symmetry_space_group_name_H-M   'P 1'
_cell_length_a   7.58794486
_cell_length_b   7.58787607
_cell_length_c   10.33366937
_cell_angle_alpha   98.69450003
_cell_angle_beta   98.69315621
_cell_angle_gamma   118.46449812
_symmetry_Int_Tables_number   1
_chemical_formula_structural   CuH6C5S4I
_chemical_formula_sum   'Cu2 H12 C10 S8 I2'
_cell_volume   499.69593270
_cell_formula_units_Z   2
loop_
 _symmetry_equiv_pos_site_id
 _symmetry_equiv_pos_as_xyz
  1  'x, y, z'
loop_
 _atom_site_type_symbol
 _atom_site_label
 _atom_site_symmetry_multiplicity
 _atom_site_fract_x
 _atom_site_fract_y
 _atom_site_fract_z
 _atom_site_occupancy
 _atom_site_hle17_bader_spin_density
 _atom_site_hle17_ddec_charge
 _atom_site_hle17_ddec_spin_density
 _atom_site_hle17_ddec_sum_bond_order
 _atom_site_hle17_magmom
 _atom_site_hse06_10hf_bader_spin_density
 _atom_site_hse06_10hf_ddec_charge
 _atom_site_hse06_10hf_ddec_spin_density
 _atom_site_hse06_10hf_ddec_sum_bond_order
 _atom_site_hse06_10hf_magmom
 _atom_site_hse06_bader_spin_density
 _atom_site_hse06_ddec_charge
 _atom_site_hse06_ddec_spin_density
 _atom_site_hse06_ddec_sum_bond_order
 _atom_site_hse06_magmom
 _atom_site_pbe_bader_spin_density
 _atom_site_pbe_cm5_charge
 _atom_site_pbe_ddec_charge
 _atom_site_pbe_ddec_spin_density
 _atom_site_pbe_ddec_sum_bond_order
 _atom_site_pbe_magmom
Cu  Cu0  1  0.96127308  0.96127341  0.61731292  1  0  0.127375  0  2.317741  0  0  0.061968  0  2.804362  0  0  0.071679  0  2.754028  0  0  0.217762  0.056671  0  2.838404  0
Cu  Cu1  1  0.03872665  0.03872444  0.38268766  1  0  0.127378  0  2.317622  0  0  0.061955  0  2.804252  0  0  0.071753  0  2.753927  0  0  0.217737  0.056686  0  2.838176  0
H  H2  1  0.45581408  0.77700899  0.59542828  1  0  0.122793  0  0.98126  0  0  0.138493  0  1.047165  0  0  0.140565  0  1.04688  0  0  0.079662  0.13687  0  1.047639  0
H  H3  1  0.22299296  0.54418169  0.40457105  1  0  0.122813  0  0.981262  0  0  0.13849  0  1.047182  0  0  0.14056  0  1.046899  0  0  0.079661  0.136867  0  1.047654  0
H  H4  1  0.54418672  0.22299354  0.40457005  1  0  0.122814  0  0.981264  0  0  0.138521  0  1.047152  0  0  0.140592  0  1.046865  0  0  0.079676  0.136897  0  1.047623  0
H  H5  1  0.77700891  0.45580994  0.59543101  1  0  0.122805  0  0.981312  0  0  0.138508  0  1.047203  0  0  0.14058  0  1.046917  0  0  0.079669  0.136885  0  1.047677  0
H  H6  1  0.41619223  0.91219386  0.73806672  1  0  0.116108  0  1.001468  0  0  0.130032  0  1.072865  0  0  0.131629  0  1.073262  0  0  0.078718  0.129047  0  1.072561  0
H  H7  1  0.08781407  0.58380710  0.26193413  1  0  0.116101  0  1.001554  0  0  0.130058  0  1.072906  0  0  0.131656  0  1.073302  0  0  0.078735  0.129073  0  1.072602  0
H  H8  1  0.58380564  0.08780556  0.26193190  1  0  0.116158  0  1.001448  0  0  0.130065  0  1.072855  0  0  0.131665  0  1.073248  0  0  0.078711  0.129079  0  1.07255  0
H  H9  1  0.91218910  0.41619229  0.73806895  1  0  0.11609  0  1.001567  0  0  0.130054  0  1.072917  0  0  0.131652  0  1.073314  0  0  0.078712  0.129072  0  1.072614  0
H  H10  1  0.51186577  0.04109567  0.61256027  1  0  0.131838  0  0.968111  0  0  0.154551  0  1.022679  0  0  0.156098  0  1.023147  0  0  0.088224  0.153436  0  1.022301  0
H  H11  1  0.95890781  0.48813818  0.38744247  1  0  0.131855  0  0.968082  0  0  0.154564  0  1.022651  0  0  0.156111  0  1.023118  0  0  0.08822  0.153446  0  1.022279  0
H  H12  1  0.48812784  0.95890064  0.38743848  1  0  0.131819  0  0.968153  0  0  0.154556  0  1.022678  0  0  0.156104  0  1.023144  0  0  0.088214  0.153436  0  1.022312  0
H  H13  1  0.04109402  0.51186120  0.61256143  1  0  0.131872  0  0.968129  0  0  0.15459  0  1.022672  0  0  0.156137  0  1.023138  0  0  0.088226  0.153466  0  1.022319  0
C  C14  1  0.57698372  0.57699072  0.98197069  1  0  -0.088195  0  3.819534  0  0  -0.077193  0  4.104937  0  0  -0.073587  0  4.121368  0  0  -0.041269  -0.080515  0  4.095875  0
C  C15  1  0.42302231  0.42302729  0.01803385  1  0  -0.088252  0  3.81937  0  0  -0.077281  0  4.104811  0  0  -0.073733  0  4.121299  0  0  -0.04131  -0.080601  0  4.095753  0
C  C16  1  0.74620922  0.85066651  0.85221917  1  0  -0.082317  0  3.785231  0  0  -0.069225  0  4.069961  0  0  -0.067356  0  4.088967  0  0  -0.03253  -0.070992  0  4.05795  0
C  C17  1  0.14933567  0.25378525  0.14777828  1  0  -0.082275  0  3.785174  0  0  -0.069115  0  4.069742  0  0  -0.067246  0  4.088776  0  0  -0.032478  -0.070885  0  4.057716  0
C  C18  1  0.25378788  0.14933138  0.14777628  1  0  -0.082372  0  3.785265  0  0  -0.069217  0  4.06987  0  0  -0.067349  0  4.088885  0  0  -0.032517  -0.070987  0  4.057841  0
C  C19  1  0.85066062  0.74621108  0.85221884  1  0  -0.08234  0  3.785161  0  0  -0.069166  0  4.06973  0  0  -0.067309  0  4.088794  0  0  -0.032492  -0.070937  0  4.057724  0
C  C20  1  0.51158308  0.92687207  0.66606730  1  0  -0.334619  0  3.595669  0  0  -0.402534  0  3.833387  0  0  -0.40467  0  3.838923  0  0  -0.242001  -0.401181  0  3.829604  0
C  C21  1  0.07313165  0.48841212  0.33393389  1  0  -0.334715  0  3.59589  0  0  -0.40263  0  3.833613  0  0  -0.404767  0  3.839156  0  0  -0.24204  -0.401277  0  3.829798  0
C  C22  1  0.48841559  0.07312890  0.33393062  1  0  -0.334687  0  3.595773  0  0  -0.40261  0  3.833478  0  0  -0.404739  0  3.83901  0  0  -0.242007  -0.401266  0  3.829691  0
C  C23  1  0.92686702  0.51158106  0.66606798  1  0  -0.334706  0  3.59597  0  0  -0.402664  0  3.833672  0  0  -0.404798  0  3.839203  0  0  -0.242033  -0.401305  0  3.829857  0
S  S24  1  0.77783368  0.03226905  0.75881349  1  0  0.125423  0  2.905994  0  0  0.136047  0  3.3345  0  0  0.13725  0  3.323575  0  0  -0.006118  0.135656  0  3.342554  0
S  S25  1  0.96773573  0.22216164  0.24118619  1  0  0.125482  0  2.906105  0  0  0.136098  0  3.334581  0  0  0.137278  0  3.323686  0  0  -0.006097  0.135709  0  3.342569  0
S  S26  1  0.22216688  0.96773039  0.24118253  1  0  0.125469  0  2.906026  0  0  0.136077  0  3.334523  0  0  0.137257  0  3.323622  0  0  -0.006091  0.135687  0  3.342511  0
S  S27  1  0.03226589  0.77783467  0.75881249  1  0  0.125541  0  2.90603  0  0  0.136157  0  3.33451  0  0  0.137364  0  3.323582  0  0  -0.00605  0.135769  0  3.342563  0
S  S28  1  0.57525292  0.79991133  0.95722051  1  0  0.089912  0  2.559315  0  0  0.083034  0  2.909281  0  0  0.079396  0  2.913777  0  0  0.048024  0.084743  0  2.909039  0
S  S29  1  0.20009143  0.42474508  0.04277935  1  0  0.089952  0  2.559197  0  0  0.083054  0  2.909199  0  0  0.079428  0  2.913711  0  0  0.048037  0.084758  0  2.90896  0
S  S30  1  0.42474684  0.20009434  0.04277322  1  0  0.089952  0  2.559181  0  0  0.083084  0  2.909131  0  0  0.079457  0  2.913644  0  0  0.048022  0.08479  0  2.908888  0
S  S31  1  0.79990242  0.57525432  0.95722172  1  0  0.089947  0  2.559241  0  0  0.083057  0  2.909188  0  0  0.07942  0  2.913681  0  0  0.048013  0.084766  0  2.908949  0
I  I32  1  0.29491909  0.29491098  0.61291104  1  0  -0.377527  0  1.51965  0  0  -0.325709  0  1.927494  0  0  -0.344058  0  1.897604  0  0  -0.204498  -0.311453  0  1.948518  0
I  I33  1  0.70508807  0.70508060  0.38709741  1  0  -0.377494  0  1.519642  0  0  -0.325666  0  1.927468  0  0  -0.344019  0  1.897583  0  0  -0.204492  -0.311411  0  1.948481  0
