# generated using pymatgen
data_FeH10Pt(C7N3)2
_symmetry_space_group_name_H-M   'P 1'
_cell_length_a   7.06437426
_cell_length_b   7.19240002
_cell_length_c   8.42915172
_cell_angle_alpha   115.24045493
_cell_angle_beta   89.99879551
_cell_angle_gamma   90.00359283
_symmetry_Int_Tables_number   1
_chemical_formula_structural   FeH10Pt(C7N3)2
_chemical_formula_sum   'Fe1 H10 Pt1 C14 N6'
_cell_volume   387.39369874
_cell_formula_units_Z   1
loop_
 _symmetry_equiv_pos_site_id
 _symmetry_equiv_pos_as_xyz
  1  'x, y, z'
loop_
 _atom_site_type_symbol
 _atom_site_label
 _atom_site_symmetry_multiplicity
 _atom_site_fract_x
 _atom_site_fract_y
 _atom_site_fract_z
 _atom_site_occupancy
 _atom_site_pbe_bader_spin_density
 _atom_site_pbe_cm5_charge
 _atom_site_pbe_ddec_charge
 _atom_site_pbe_ddec_spin_density
 _atom_site_pbe_ddec_sum_bond_order
 _atom_site_pbe_magmom
Fe  Fe0  1  0.49999516  0.51006152  0.02032041  1  0  0.803644  0.560436  0  3.759301  0
H  H1  1  0.79235723  0.34550189  0.69195423  1  0  0.118459  0.091028  0  0.988607  0
H  H2  1  0.79291529  0.65103245  0.30178111  1  0  0.12351  0.098656  0  0.988208  0
H  H3  1  0.20705165  0.65101078  0.30176543  1  0  0.123551  0.098681  0  0.988329  0
H  H4  1  0.20763595  0.34547715  0.69193858  1  0  0.118499  0.09111  0  0.988444  0
H  H5  1  0.80536920  0.18062603  0.36118162  1  0  0.094065  0.086467  0  1.052516  0
H  H6  1  0.80516530  0.81562128  0.63060033  1  0  0.096444  0.087857  0  1.04854  0
H  H7  1  0.19482674  0.81558675  0.63056937  1  0  0.096472  0.087924  0  1.048507  0
H  H8  1  0.19466119  0.18059418  0.36116947  1  0  0.094073  0.086437  0  1.052495  0
H  H9  1  0.50001954  0.09745090  0.19409443  1  0  0.109473  0.114538  0  0.998545  0
H  H10  1  0.49998673  0.89987378  0.79926184  1  0  0.110445  0.116425  0  0.994131  0
Pt  Pt11  1  0.00000263  0.99958679  0.99932446  1  0  0.526592  0.086823  0  4.759907  0
C  C12  1  0.19553807  0.19765203  0.00350966  1  0  -0.004963  0.026259  0  3.933538  0
C  C13  1  0.19562537  0.80584370  0.00359912  1  0  -0.004626  0.025772  0  3.93396  0
C  C14  1  0.80447948  0.19766551  0.00350897  1  0  -0.004905  0.026378  0  3.933237  0
C  C15  1  0.80438983  0.80583024  0.00362626  1  0  -0.004673  0.025709  0  3.934004  0
C  C16  1  0.66415733  0.30573460  0.61226336  1  0  0.049131  0.078956  0  3.961636  0
C  C17  1  0.66444985  0.69055349  0.38050957  1  0  0.049429  0.077662  0  3.909361  0
C  C18  1  0.33552475  0.69051076  0.38048947  1  0  0.049427  0.077685  0  3.909568  0
C  C19  1  0.33585932  0.30572850  0.61227010  1  0  0.049164  0.078962  0  3.961605  0
C  C20  1  0.66998874  0.21476689  0.42981082  1  0  -0.085817  -0.12668  0  3.985017  0
C  C21  1  0.66938090  0.78162853  0.56267139  1  0  -0.08329  -0.122703  0  3.988452  0
C  C22  1  0.33061063  0.78160403  0.56265350  1  0  -0.083512  -0.122997  0  3.98874  0
C  C23  1  0.33004215  0.21476231  0.42980163  1  0  -0.085804  -0.126645  0  3.985024  0
C  C24  1  0.50000732  0.16848879  0.33679145  1  0  -0.061104  -0.002336  0  3.90293  0
C  C25  1  0.49998761  0.82836389  0.65646655  1  0  -0.06021  -0.005481  0  3.904598  0
N  N26  1  0.31056547  0.31902003  0.01197353  1  0  -0.387319  -0.300759  0  3.62573  0
N  N27  1  0.31051649  0.69271783  0.01187384  1  0  -0.387611  -0.300195  0  3.624264  0
N  N28  1  0.68943979  0.31902825  0.01201576  1  0  -0.387221  -0.300784  0  3.625346  0
N  N29  1  0.68945876  0.69269938  0.01185975  1  0  -0.387733  -0.30027  0  3.624635  0
N  N30  1  0.50000441  0.34969457  0.70020070  1  0  -0.2799  -0.175886  0  3.448344  0
N  N31  1  0.49999758  0.64528895  0.29014169  1  0  -0.30369  -0.139031  0  3.563964  0
