# generated using pymatgen
data_KBHC4N3O2
_symmetry_space_group_name_H-M   'P 1'
_cell_length_a   6.24255624
_cell_length_b   7.11048252
_cell_length_c   9.27725683
_cell_angle_alpha   110.71691028
_cell_angle_beta   107.67513754
_cell_angle_gamma   94.98615003
_symmetry_Int_Tables_number   1
_chemical_formula_structural   KBHC4N3O2
_chemical_formula_sum   'K2 B2 H2 C8 N6 O4'
_cell_volume   358.15538209
_cell_formula_units_Z   2
loop_
 _symmetry_equiv_pos_site_id
 _symmetry_equiv_pos_as_xyz
  1  'x, y, z'
loop_
 _atom_site_type_symbol
 _atom_site_label
 _atom_site_symmetry_multiplicity
 _atom_site_fract_x
 _atom_site_fract_y
 _atom_site_fract_z
 _atom_site_occupancy
 _atom_site_hle17_bader_spin_density
 _atom_site_hle17_ddec_charge
 _atom_site_hle17_ddec_spin_density
 _atom_site_hle17_ddec_sum_bond_order
 _atom_site_hle17_magmom
 _atom_site_hse06_10hf_bader_spin_density
 _atom_site_hse06_10hf_ddec_charge
 _atom_site_hse06_10hf_ddec_spin_density
 _atom_site_hse06_10hf_ddec_sum_bond_order
 _atom_site_hse06_10hf_magmom
 _atom_site_hse06_bader_spin_density
 _atom_site_hse06_ddec_charge
 _atom_site_hse06_ddec_spin_density
 _atom_site_hse06_ddec_sum_bond_order
 _atom_site_hse06_magmom
 _atom_site_pbe_bader_spin_density
 _atom_site_pbe_cm5_charge
 _atom_site_pbe_ddec_charge
 _atom_site_pbe_ddec_spin_density
 _atom_site_pbe_ddec_sum_bond_order
 _atom_site_pbe_magmom
K  K0  1  0.48150951  0.44035838  0.82477429  1  0  0.918501  0  0.454696  0  0  0.861193  0  0.650269  0  0  0.874302  0  0.631021  0  0  0.820588  0.851494  0  0.663967  0
K  K1  1  0.15683761  0.61570389  0.17524628  1  0  0.918168  0  0.454958  0  0  0.860794  0  0.650562  0  0  0.873909  0  0.631331  0  0  0.8204  0.851144  0  0.664166  0
B  B2  1  0.66724418  0.17470891  0.27891291  1  0  0.094441  0  3.51309  0  0  0.018401  0  3.73701  0  0  0.024177  0  3.734247  0  0  -0.203602  0.014388  0  3.739382  0
B  B3  1  0.88845457  0.89581646  0.72117787  1  0  0.094725  0  3.512031  0  0  0.018628  0  3.735422  0  0  0.024735  0  3.731945  0  0  -0.203943  0.014254  0  3.73876  0
H  H4  1  0.26705374  0.05373379  0.42890277  1  0  0.380655  0  0.907429  0  0  0.347785  0  0.996398  0  0  0.359646  0  0.982957  0  0  0.305557  0.339453  0  1.005744  0
H  H5  1  0.33812965  0.62468451  0.57091057  1  0  0.381508  0  0.90913  0  0  0.348778  0  0.997468  0  0  0.360629  0  0.984115  0  0  0.305676  0.340409  0  1.006816  0
C  C6  1  0.50515512  0.24054986  0.14674438  1  0  0.18402  0  3.570238  0  0  0.191168  0  3.838798  0  0  0.199174  0  3.852421  0  0  0.229239  0.185629  0  3.829806  0
C  C7  1  0.85834791  0.09381826  0.85308489  1  0  0.18264  0  3.573562  0  0  0.18989  0  3.842319  0  0  0.197851  0  3.855935  0  0  0.229033  0.1844  0  3.833346  0
C  C8  1  0.71223248  0.95556906  0.19028175  1  0  0.181707  0  3.559606  0  0  0.188809  0  3.829805  0  0  0.196245  0  3.843347  0  0  0.230638  0.183609  0  3.820958  0
C  C9  1  0.02240019  0.76565475  0.81014528  1  0  0.182658  0  3.56114  0  0  0.189923  0  3.831275  0  0  0.197341  0  3.844778  0  0  0.231905  0.184764  0  3.822454  0
C  C10  1  0.90352962  0.33929988  0.37145708  1  0  0.202411  0  3.526839  0  0  0.204919  0  3.794232  0  0  0.212494  0  3.808957  0  0  0.248536  0.199836  0  3.784349  0
C  C11  1  0.03211787  0.96781258  0.62861855  1  0  0.20238  0  3.527056  0  0  0.204942  0  3.794912  0  0  0.212472  0  3.809614  0  0  0.247948  0.199915  0  3.785056  0
C  C12  1  0.54356849  0.17324501  0.41223260  1  0  0.505158  0  3.758058  0  0  0.485354  0  4.054476  0  0  0.511166  0  4.05007  0  0  0.254358  0.467716  0  4.056907  0
C  C13  1  0.63149468  0.76069052  0.58769902  1  0  0.505119  0  3.758084  0  0  0.485537  0  4.054578  0  0  0.511286  0  4.050178  0  0  0.253988  0.467951  0  4.056987  0
N  N14  1  0.38759311  0.29697444  0.05361292  1  0  -0.467648  0  2.74435  0  0  -0.44405  0  2.996364  0  0  -0.455857  0  3.008278  0  0  -0.445398  -0.435951  0  2.988468  0
N  N15  1  0.83381651  0.24333964  0.94607690  1  0  -0.466517  0  2.747195  0  0  -0.442878  0  2.999166  0  0  -0.454709  0  3.011143  0  0  -0.445192  -0.434767  0  2.991203  0
N  N16  1  0.74597697  0.79402917  0.12474035  1  0  -0.459594  0  2.697056  0  0  -0.4377  0  2.943986  0  0  -0.447847  0  2.954632  0  0  -0.418573  -0.430776  0  2.937035  0
N  N17  1  0.12181072  0.66962068  0.87568767  1  0  -0.460538  0  2.699421  0  0  -0.43876  0  2.946432  0  0  -0.448963  0  2.957106  0  0  -0.420364  -0.431797  0  2.939428  0
N  N18  1  0.07588361  0.46227694  0.43889959  1  0  -0.419608  0  2.780222  0  0  -0.386731  0  3.021038  0  0  -0.399525  0  3.032892  0  0  -0.319042  -0.378044  0  3.013116  0
N  N19  1  0.13672528  0.02326467  0.56099637  1  0  -0.419762  0  2.780235  0  0  -0.386757  0  3.021316  0  0  -0.399591  0  3.033201  0  0  -0.318481  -0.378061  0  3.013337  0
O  O20  1  0.33335457  0.04696602  0.34062897  1  0  -0.566952  0  2.162181  0  0  -0.515859  0  2.385999  0  0  -0.538832  0  2.374463  0  0  -0.37152  -0.49949  0  2.39338  0
O  O21  1  0.49272932  0.70637704  0.65928749  1  0  -0.568505  0  2.163291  0  0  -0.517582  0  2.387031  0  0  -0.540582  0  2.375484  0  0  -0.3718  -0.501138  0  2.394478  0
O  O22  1  0.62785180  0.27856868  0.56146547  1  0  -0.552698  0  2.001108  0  0  -0.513179  0  2.224946  0  0  -0.535002  0  2.222099  0  0  -0.330196  -0.497745  0  2.226341  0
O  O23  1  0.56670851  0.71636427  0.43840637  1  0  -0.55227  0  2.00245  0  0  -0.512625  0  2.225727  0  0  -0.534519  0  2.223031  0  0  -0.329756  -0.497191  0  2.227096  0
