# generated using pymatgen
data_MnH10(C2O3)4
_symmetry_space_group_name_H-M   'P 1'
_cell_length_a   5.14263439
_cell_length_b   7.49427556
_cell_length_c   8.87647413
_cell_angle_alpha   66.46801911
_cell_angle_beta   76.81988040
_cell_angle_gamma   74.70311194
_symmetry_Int_Tables_number   1
_chemical_formula_structural   MnH10(C2O3)4
_chemical_formula_sum   'Mn1 H10 C8 O12'
_cell_volume   299.61472711
_cell_formula_units_Z   1
loop_
 _symmetry_equiv_pos_site_id
 _symmetry_equiv_pos_as_xyz
  1  'x, y, z'
loop_
 _atom_site_type_symbol
 _atom_site_label
 _atom_site_symmetry_multiplicity
 _atom_site_fract_x
 _atom_site_fract_y
 _atom_site_fract_z
 _atom_site_occupancy
 _atom_site_pbe_cm5_charge
 _atom_site_pbe_ddec_charge
 _atom_site_pbe_ddec_spin_density
 _atom_site_pbe_ddec_sum_bond_order
 _atom_site_pbe_magmom
Mn  Mn0  1  0.99858932  0.00133165  0.99825274  1  0.604327  1.119511  -4.69205  2.205164  -4.519
H  H1  1  0.01664077  0.98775025  0.49904669  1  0.300744  0.335225  -3.3e-05  1.010132  0.0
H  H2  1  0.02058127  0.49242072  0.50186665  1  0.29883  0.333709  -4.5e-05  1.012478  0.0
H  H3  1  0.24459039  0.83171338  0.27952597  1  0.300534  0.38466  -0.000785  0.951817  -0.002
H  H4  1  0.75023447  0.17008450  0.71716358  1  0.296785  0.383942  -0.000791  0.955143  -0.002
H  H5  1  0.47543970  0.78403353  0.13836740  1  0.294912  0.395225  -0.000488  0.939516  -0.002
H  H6  1  0.52198207  0.21637501  0.86074235  1  0.294801  0.395077  -0.000557  0.938915  -0.002
H  H7  1  0.81756006  0.70139242  0.96347781  1  0.297579  0.374118  -0.000357  0.968407  -0.001
H  H8  1  0.18005520  0.29995269  0.03760187  1  0.296573  0.375402  -0.000361  0.967899  -0.001
H  H9  1  0.91713421  0.61670263  0.13844043  1  0.303692  0.388939  -0.000406  0.944144  -0.001
H  H10  1  0.08006287  0.38474039  0.86268024  1  0.302864  0.386031  -0.000431  0.948527  -0.001
C  C11  1  0.60007718  0.17800440  0.28136499  1  0.120842  0.193643  -0.012541  4.125805  -0.013
C  C12  1  0.39948718  0.82406053  0.71899488  1  0.113584  0.185937  -0.011964  4.156942  -0.012
C  C13  1  0.63268758  0.20180539  0.43320900  1  0.108528  0.157742  -0.002042  4.106834  -0.001
C  C14  1  0.36598576  0.79950676  0.57004037  1  0.103576  0.139939  -0.003197  4.047578  -0.002
C  C15  1  0.36989708  0.33349409  0.43132594  1  0.112749  0.165192  -0.009666  4.046012  -0.007
C  C16  1  0.62770555  0.66692278  0.56677969  1  0.113038  0.174198  -0.00783  4.11776  -0.005
C  C17  1  0.33139353  0.31725363  0.27862475  1  0.118082  0.181047  -0.001471  4.116819  -0.001
C  C18  1  0.66737635  0.68410312  0.72131665  1  0.124573  0.191346  -0.001755  4.078716  -0.001
O  O19  1  0.73097562  0.07396775  0.19887531  1  -0.283902  -0.426908  -0.036055  2.41505  -0.019
O  O20  1  0.27019965  0.92818950  0.80225900  1  -0.291261  -0.436956  -0.038399  2.421215  -0.021
O  O21  1  0.81018945  0.12690022  0.53240921  1  -0.278847  -0.401945  -0.000224  2.417652  -0.001
O  O22  1  0.18483671  0.87476833  0.46926991  1  -0.28983  -0.369911  -0.000434  2.504979  -0.001
O  O23  1  0.22813970  0.41717913  0.53298700  1  -0.291366  -0.343212  -0.004408  2.431282  -0.005
O  O24  1  0.76599132  0.58427169  0.46724785  1  -0.281703  -0.375387  -0.00518  2.346957  -0.006
O  O25  1  0.14739015  0.38280395  0.18811426  1  -0.273046  -0.404669  -0.000157  2.340258  -0.001
O  O26  1  0.85153247  0.61867106  0.81108882  1  -0.266004  -0.394569  -8.6e-05  2.340147  -0.001
O  O27  1  0.27452987  0.81167444  0.17321488  1  -0.576885  -0.78784  -0.043002  2.133398  -0.026
O  O28  1  0.72220522  0.18876202  0.82465994  1  -0.579174  -0.791854  -0.04435  2.134956  -0.027
O  O29  1  0.81041114  0.73694337  0.06263942  1  -0.546816  -0.762596  -0.040383  2.194548  -0.025
O  O30  1  0.18610230  0.26423697  0.93840226  1  -0.547778  -0.765034  -0.040549  2.192869  -0.025
