# generated using pymatgen
data_LaH4C4N2Cl3
_symmetry_space_group_name_H-M   'P 1'
_cell_length_a   6.95005754
_cell_length_b   7.49508094
_cell_length_c   8.40117292
_cell_angle_alpha   116.48930877
_cell_angle_beta   89.99987871
_cell_angle_gamma   90.00007785
_symmetry_Int_Tables_number   1
_chemical_formula_structural   LaH4C4N2Cl3
_chemical_formula_sum   'La2 H8 C8 N4 Cl6'
_cell_volume   391.68435894
_cell_formula_units_Z   2
loop_
 _symmetry_equiv_pos_site_id
 _symmetry_equiv_pos_as_xyz
  1  'x, y, z'
loop_
 _atom_site_type_symbol
 _atom_site_label
 _atom_site_symmetry_multiplicity
 _atom_site_fract_x
 _atom_site_fract_y
 _atom_site_fract_z
 _atom_site_occupancy
 _atom_site_pbe_bader_spin_density
 _atom_site_pbe_cm5_charge
 _atom_site_pbe_ddec_charge
 _atom_site_pbe_ddec_spin_density
 _atom_site_pbe_ddec_sum_bond_order
 _atom_site_pbe_magmom
La  La0  1  0.79834502  0.74999954  0.00000079  1  0  0.905356  1.561988  0  2.686079  0
La  La1  1  0.20165624  0.24999765  0.99999816  1  0  0.905356  1.561974  0  2.686154  0
H  H2  1  0.32838382  0.64042960  0.78037034  1  0  0.107428  0.080958  0  1.062114  0
H  H3  1  0.32838612  0.85957056  0.21962845  1  0  0.107401  0.080925  0  1.06212  0
H  H4  1  0.67161514  0.14042961  0.78037169  1  0  0.107427  0.080949  0  1.062132  0
H  H5  1  0.67161457  0.35957057  0.21962861  1  0  0.107394  0.080916  0  1.062152  0
H  H6  1  0.84828048  0.50315283  0.50669769  1  0  0.105968  0.089816  0  1.036298  0
H  H7  1  0.84828229  0.99684608  0.49330444  1  0  0.105979  0.089847  0  1.036287  0
H  H8  1  0.15171897  0.00315260  0.50669749  1  0  0.105974  0.089854  0  1.036256  0
H  H9  1  0.15171647  0.49684586  0.49330067  1  0  0.105979  0.089847  0  1.036273  0
C  C10  1  0.40705522  0.57801767  0.65556474  1  0  0.050665  0.064802  0  3.917805  0
C  C11  1  0.40705730  0.92198402  0.34443452  1  0  0.050729  0.064849  0  3.917742  0
C  C12  1  0.59294252  0.07801764  0.65556622  1  0  0.050684  0.064827  0  3.917771  0
C  C13  1  0.59294317  0.42198400  0.34443481  1  0  0.050731  0.064822  0  3.917744  0
C  C14  1  0.69196666  0.50261335  0.50555171  1  0  0.050922  0.065467  0  3.906062  0
C  C15  1  0.69196992  0.99738697  0.49444888  1  0  0.050946  0.065435  0  3.906011  0
C  C16  1  0.30803278  0.00261469  0.50555067  1  0  0.050913  0.065405  0  3.906087  0
C  C17  1  0.30803172  0.49738533  0.49444784  1  0  0.050913  0.065379  0  3.906117  0
N  N18  1  0.60029390  0.58143432  0.66272729  1  0  -0.329632  -0.247762  0  3.426313  0
N  N19  1  0.60029600  0.91856447  0.33727166  1  0  -0.329681  -0.247804  0  3.426247  0
N  N20  1  0.39970383  0.08143570  0.66272729  1  0  -0.329638  -0.247764  0  3.426331  0
N  N21  1  0.39970305  0.41856585  0.33727285  1  0  -0.329643  -0.247738  0  3.426305  0
Cl  Cl22  1  0.99994966  0.88855994  0.77702610  1  0  -0.293335  -0.557698  0  1.267301  0
Cl  Cl23  1  0.99995016  0.61143605  0.22297340  1  0  -0.293326  -0.557698  0  1.267291  0
Cl  Cl24  1  0.00005016  0.11143874  0.22297344  1  0  -0.293336  -0.557691  0  1.267289  0
Cl  Cl25  1  0.00005110  0.38856114  0.77702555  1  0  -0.29334  -0.557708  0  1.267297  0
Cl  Cl26  1  0.49999911  0.50000018  0.00000035  1  0  -0.289418  -0.553091  0  1.471917  0
Cl  Cl27  1  0.49999947  0.99999876  0.00000051  1  0  -0.289416  -0.553103  0  1.471942  0
