# generated using pymatgen
data_CuH5C5NCl2O
_symmetry_space_group_name_H-M   'P 1'
_cell_length_a   3.82294064
_cell_length_b   9.82028093
_cell_length_c   10.25020245
_cell_angle_alpha   65.15116167
_cell_angle_beta   89.73912443
_cell_angle_gamma   87.50336001
_symmetry_Int_Tables_number   1
_chemical_formula_structural   CuH5C5NCl2O
_chemical_formula_sum   'Cu2 H10 C10 N2 Cl4 O2'
_cell_volume   348.81861824
_cell_formula_units_Z   2
loop_
 _symmetry_equiv_pos_site_id
 _symmetry_equiv_pos_as_xyz
  1  'x, y, z'
loop_
 _atom_site_type_symbol
 _atom_site_label
 _atom_site_symmetry_multiplicity
 _atom_site_fract_x
 _atom_site_fract_y
 _atom_site_fract_z
 _atom_site_occupancy
 _atom_site_hle17_ddec_charge
 _atom_site_hle17_ddec_spin_density
 _atom_site_hle17_ddec_sum_bond_order
 _atom_site_hle17_magmom
 _atom_site_hse06_10hf_ddec_charge
 _atom_site_hse06_10hf_ddec_spin_density
 _atom_site_hse06_10hf_ddec_sum_bond_order
 _atom_site_hse06_10hf_magmom
 _atom_site_hse06_ddec_charge
 _atom_site_hse06_ddec_spin_density
 _atom_site_hse06_ddec_sum_bond_order
 _atom_site_hse06_magmom
 _atom_site_pbe_cm5_charge
 _atom_site_pbe_ddec_charge
 _atom_site_pbe_ddec_spin_density
 _atom_site_pbe_ddec_sum_bond_order
 _atom_site_pbe_magmom
Cu  Cu0  1  0.65498052  0.95637807  0.17145074  1  0.798253  0.598891  1.878481  0.435  0.818724  0.719031  2.266698  0.572  0.923417  0.8069  2.175012  0.664  0.499564  0.759365  0.651454  2.323286  0.51
Cu  Cu1  1  0.34501659  0.04361894  0.82855099  1  0.798274  -0.598884  1.878448  -0.435  0.818753  -0.719033  2.26666  -0.572  0.923452  -0.806893  2.174969  -0.664  0.499586  0.75939  -0.651466  2.323253  -0.51
H  H2  1  0.40895102  0.12350077  0.50247674  1  0.318066  -0.00019  0.891828  0.0  0.294731  -0.000117  0.958442  0.0  0.304834  -4e-05  0.949728  0.0  0.310631  0.287466  -0.000213  0.96483  0.0
H  H3  1  0.59106171  0.87649727  0.49752458  1  0.318051  0.000189  0.891865  0.0  0.29476  0.000117  0.95843  0.0  0.304858  4e-05  0.949713  0.0  0.310664  0.287498  0.000212  0.964817  0.0
H  H4  1  0.82255828  0.27625038  0.08742868  1  0.124359  -0.000406  0.989561  0.0  0.132434  -0.000576  1.053924  0.0  0.13677  -0.000472  1.051539  0.0  0.091164  0.129359  -0.000677  1.056523  0.0
H  H5  1  0.17744899  0.72375109  0.91256935  1  0.12437  0.000407  0.989595  0.0  0.132419  0.000577  1.053979  0.0  0.136754  0.000472  1.051598  0.0  0.091167  0.129344  0.000677  1.056573  0.0
H  H6  1  0.78849730  0.53779056  0.07199308  1  0.092215  6.4e-05  0.949944  0.0  0.10652  1.9e-05  1.00561  0.0  0.108772  -1.2e-05  1.003721  0.0  0.101991  0.104872  -3.4e-05  1.007094  0.0
H  H7  1  0.21148918  0.46220878  0.92800678  1  0.092216  -6.5e-05  0.949978  0.0  0.106531  -1.8e-05  1.005628  0.0  0.108783  1.2e-05  1.003739  0.0  0.10199  0.104883  3.4e-05  1.007116  0.0
H  H8  1  0.53603668  0.58659855  0.27463746  1  0.117388  0.000435  0.986905  0.0  0.123393  0.0004  1.052917  0.0  0.127329  0.000321  1.051124  0.0  0.091364  0.121115  0.000404  1.053081  0.0
H  H9  1  0.46394711  0.41340197  0.72535999  1  0.117393  -0.000431  0.986775  0.0  0.123398  -0.0004  1.052795  0.0  0.127332  -0.00032  1.051005  0.0  0.091384  0.121124  -0.000404  1.052938  0.0
H  H10  1  0.33607693  0.36226102  0.49448132  1  0.091822  1.9e-05  0.962431  0.0  0.103984  -0.000198  1.020946  0.0  0.107104  -0.000197  1.017567  0.0  0.111701  0.102121  -0.000213  1.023003  0.0
H  H11  1  0.66392786  0.63773816  0.50552151  1  0.09189  -2.3e-05  0.962401  0.0  0.104015  0.000198  1.020958  0.0  0.107135  0.000198  1.017576  0.0  0.111712  0.102162  0.000213  1.023016  0.0
C  C12  1  0.60077147  0.17880609  0.29837282  1  0.547261  -0.001446  3.793171  -0.003  0.51131  0.000722  4.06866  -0.001  0.539998  0.000616  4.075735  0.0  0.215489  0.492611  0.000876  4.063451  -0.001
C  C13  1  0.39922548  0.82119318  0.70162804  1  0.547248  0.001468  3.79328  0.003  0.511292  -0.000723  4.068786  0.001  0.539982  -0.00061  4.075865  0.0  0.21549  0.492586  -0.000877  4.06359  0.001
C  C14  1  0.71752782  0.30074948  0.17436544  1  -0.257043  -0.004284  3.69988  -0.003  -0.278859  -0.001981  3.960366  -0.001  -0.294079  -0.00153  3.980954  -0.001  -0.110743  -0.269841  -0.001821  3.946908  -0.001
C  C15  1  0.28246821  0.69926207  0.82563549  1  -0.256938  0.004225  3.699596  0.003  -0.278743  0.001983  3.960087  0.001  -0.293963  0.00152  3.980673  0.001  -0.110679  -0.269723  0.00182  3.946633  0.001
C  C16  1  0.69780186  0.44437128  0.16730337  1  0.036573  -0.000532  3.730786  0.0  0.019365  -0.00101  3.980676  -0.001  0.028127  -0.000744  3.998136  -0.001  -0.065688  0.014653  -0.001042  3.967716  -0.001
C  C17  1  0.30219797  0.55562467  0.83269390  1  0.036488  0.000581  3.730624  0.0  0.019275  0.001007  3.980503  0.001  0.028042  0.000752  3.997959  0.001  -0.065686  0.014566  0.001043  3.967545  0.001
C  C18  1  0.55823648  0.47335915  0.28079143  1  -0.160488  -0.002819  3.750424  -0.002  -0.177054  -0.000851  4.010733  -0.001  -0.188018  -0.00063  4.032355  0.0  -0.103983  -0.169161  -0.000868  3.993935  -0.001
C  C19  1  0.44175730  0.52664804  0.71920341  1  -0.160438  0.002786  3.750627  0.002  -0.176985  0.00085  4.010918  0.001  -0.187948  0.000622  4.032541  0.0  -0.103985  -0.16909  0.000867  3.994124  0.001
C  C20  1  0.44901369  0.35387150  0.40039964  1  0.159248  -0.001509  3.666721  -0.001  0.119604  -0.000635  3.918353  0.0  0.1297  -0.000286  3.934346  0.0  0.048034  0.112443  -0.000774  3.907736  0.0
C  C21  1  0.55098392  0.64611882  0.59960178  1  0.159144  0.001543  3.666729  0.001  0.119502  0.000636  3.918394  0.0  0.1296  0.000292  3.93439  0.0  0.047932  0.112327  0.000774  3.907789  0.0
N  N22  1  0.47252618  0.21269093  0.40713184  1  -0.337133  0.003744  3.37111  0.005  -0.265165  0.0027  3.592933  0.003  -0.284262  0.001992  3.602307  0.003  -0.363579  -0.252985  0.003037  3.587496  0.004
N  N23  1  0.52748107  0.78731051  0.59286816  1  -0.33714  -0.003756  3.371017  -0.005  -0.265178  -0.0027  3.592796  -0.003  -0.284274  -0.001996  3.602177  -0.003  -0.36353  -0.252987  -0.003037  3.58737  -0.004
Cl  Cl24  1  0.69690840  0.86032127  0.99936329  1  -0.445035  0.02607  1.332143  0.029  -0.451188  0.016658  1.67989  0.019  -0.502981  0.012659  1.653344  0.015  -0.215761  -0.423644  0.018509  1.701011  0.021
Cl  Cl25  1  0.30308879  0.13967461  0.00063987  1  -0.445036  -0.026057  1.332135  -0.029  -0.451199  -0.016652  1.679909  -0.019  -0.50299  -0.012657  1.653356  -0.015  -0.21575  -0.423648  -0.018497  1.701018  -0.021
Cl  Cl26  1  0.07691096  0.78984133  0.30226129  1  -0.495064  0.114786  1.081959  0.136  -0.506129  0.072685  1.388599  0.092  -0.543921  0.058517  1.360874  0.077  -0.282279  -0.484203  0.074918  1.406423  0.092
Cl  Cl27  1  0.92309392  0.21015675  0.69774100  1  -0.495053  -0.114799  1.081934  -0.136  -0.50613  -0.072685  1.388564  -0.092  -0.543922  -0.058521  1.360839  -0.077  -0.282293  -0.484202  -0.074917  1.406386  -0.092
O  O28  1  0.60719847  0.03957468  0.31914818  1  -0.590419  0.058579  2.121339  0.078  -0.551671  0.045477  2.393186  0.066  -0.592795  0.037321  2.385572  0.057  -0.327929  -0.524186  0.049583  2.397399  0.07
O  O29  1  0.39280356  0.96042682  0.68084984  1  -0.590469  -0.058586  2.121365  -0.078  -0.551708  -0.04548  2.393202  -0.066  -0.592835  -0.037325  2.385593  -0.057  -0.32798  -0.524215  -0.049582  2.397422  -0.07
