# generated using pymatgen
data_CoH4(CO3)2
_symmetry_space_group_name_H-M   'P 1'
_cell_length_a   5.50190642
_cell_length_b   6.53913163
_cell_length_c   8.10780419
_cell_angle_alpha   80.68386197
_cell_angle_beta   70.16820139
_cell_angle_gamma   65.20767933
_symmetry_Int_Tables_number   1
_chemical_formula_structural   CoH4(CO3)2
_chemical_formula_sum   'Co2 H8 C4 O12'
_cell_volume   249.04390838
_cell_formula_units_Z   2
loop_
 _symmetry_equiv_pos_site_id
 _symmetry_equiv_pos_as_xyz
  1  'x, y, z'
loop_
 _atom_site_type_symbol
 _atom_site_label
 _atom_site_symmetry_multiplicity
 _atom_site_fract_x
 _atom_site_fract_y
 _atom_site_fract_z
 _atom_site_occupancy
 _atom_site_hle17_ddec_charge
 _atom_site_hle17_ddec_spin_density
 _atom_site_hle17_ddec_sum_bond_order
 _atom_site_hle17_magmom
 _atom_site_hse06_10hf_ddec_charge
 _atom_site_hse06_10hf_ddec_spin_density
 _atom_site_hse06_10hf_ddec_sum_bond_order
 _atom_site_hse06_10hf_magmom
 _atom_site_hse06_ddec_charge
 _atom_site_hse06_ddec_spin_density
 _atom_site_hse06_ddec_sum_bond_order
 _atom_site_hse06_magmom
 _atom_site_pbe_cm5_charge
 _atom_site_pbe_ddec_charge
 _atom_site_pbe_ddec_spin_density
 _atom_site_pbe_ddec_sum_bond_order
 _atom_site_pbe_magmom
Co  Co0  1  0.42160600  0.75027574  0.24984996  1  1.096471  2.836357  1.831992  2.622  1.068942  2.849897  2.216103  2.686  1.140366  2.884158  2.149898  2.748  0.639073  1.011435  2.817732  2.265356  2.628
Co  Co1  1  0.57838993  0.24972793  0.75014813  1  1.096416  2.836345  1.831736  2.622  1.068976  2.849916  2.215785  2.686  1.140404  2.884177  2.149587  2.748  0.639076  1.011472  2.817741  2.265036  2.628
H  H2  1  0.12198730  0.16982863  0.35308350  1  0.43315  -0.000164  0.862881  0.0  0.40437  0.000179  0.923252  0.0  0.416096  -6.1e-05  0.906255  0.0  0.297294  0.395755  0.000412  0.935702  0.001
H  H3  1  0.64536672  0.32990927  0.14689387  1  0.432167  -0.00016  0.864273  0.0  0.40319  0.000272  0.924957  0.001  0.414949  3.3e-05  0.907917  0.0  0.296147  0.394565  0.000509  0.937414  0.001
H  H4  1  0.87801085  0.83017167  0.64691798  1  0.433185  -0.000165  0.862845  0.0  0.404352  0.000178  0.923319  0.0  0.416083  -6.3e-05  0.906312  0.0  0.297274  0.39573  0.000411  0.935778  0.001
H  H5  1  0.35461135  0.67009776  0.85310107  1  0.432109  -0.00016  0.864352  0.0  0.403127  0.000273  0.92506  0.001  0.414889  3.4e-05  0.908014  0.0  0.29614  0.3945  0.000509  0.937519  0.001
H  H6  1  0.19215385  0.17145951  0.14010419  1  0.435357  -7.1e-05  0.859741  0.0  0.40566  0.00021  0.921201  0.001  0.417228  -1.6e-05  0.904494  0.0  0.298177  0.397183  0.000429  0.933419  0.001
H  H7  1  0.50413660  0.32846616  0.35986093  1  0.437564  -6.9e-05  0.857257  0.0  0.407871  0.000333  0.919044  0.001  0.419479  0.000114  0.902203  0.001  0.298328  0.399327  0.000537  0.931405  0.001
H  H8  1  0.80786883  0.82852902  0.85989019  1  0.435408  -7.1e-05  0.859664  0.0  0.405618  0.000211  0.921265  0.001  0.417187  -1.5e-05  0.904557  0.0  0.298148  0.397145  0.000429  0.933474  0.001
H  H9  1  0.49585671  0.67152738  0.64014309  1  0.437531  -7.1e-05  0.857299  0.0  0.407772  0.000333  0.919166  0.001  0.419401  0.000114  0.902301  0.001  0.298338  0.399227  0.000537  0.931526  0.001
C  C10  1  0.86903628  0.75118906  0.35204131  1  0.554404  -0.007522  3.848693  -0.006  0.506618  -0.000236  4.152106  0.0  0.538296  -0.000629  4.145717  0.0  0.226205  0.484175  -0.00043  4.155992  0.0
C  C11  1  0.97243196  0.74860488  0.14802334  1  0.55263  -0.007619  3.852943  -0.006  0.505757  -0.000218  4.155625  0.0  0.537409  -0.000607  4.149263  0.0  0.224654  0.483326  -0.00048  4.159516  0.0
C  C12  1  0.13097650  0.24881295  0.64795030  1  0.554502  -0.007522  3.848529  -0.006  0.506658  -0.000235  4.152001  0.0  0.538333  -0.000629  4.145615  0.0  0.226233  0.484218  -0.00043  4.155884  0.0
C  C13  1  0.02757778  0.25140215  0.85199028  1  0.55258  -0.007602  3.852955  -0.006  0.505863  -0.000217  4.155534  0.0  0.53751  -0.000606  4.149181  0.0  0.224693  0.483436  -0.00048  4.15942  0.0
O  O14  1  0.03490052  0.75178975  0.42887800  1  -0.574192  0.027559  2.115259  0.053  -0.529997  0.023014  2.362046  0.04  -0.560685  0.018055  2.350306  0.032  -0.282394  -0.507446  0.027815  2.370084  0.047
O  O15  1  0.21536485  0.74877955  0.07123435  1  -0.571669  0.027628  2.118032  0.053  -0.528784  0.023194  2.365658  0.04  -0.5595  0.018215  2.353976  0.032  -0.281119  -0.506187  0.028  2.37356  0.047
O  O16  1  0.96512265  0.24819203  0.57112522  1  -0.574207  0.027548  2.115291  0.053  -0.530023  0.023008  2.362109  0.04  -0.5607  0.018049  2.350372  0.032  -0.282462  -0.507477  0.02781  2.370139  0.047
O  O17  1  0.78465360  0.25121739  0.92876780  1  -0.571656  0.027627  2.118188  0.053  -0.52882  0.023191  2.365749  0.04  -0.559537  0.018213  2.35407  0.032  -0.28109  -0.506225  0.027997  2.373656  0.047
O  O18  1  0.62554103  0.75274623  0.42741942  1  -0.559261  0.028606  2.129188  0.054  -0.513369  0.023551  2.376872  0.04  -0.544571  0.018555  2.365996  0.032  -0.278949  -0.490441  0.028357  2.384271  0.047
O  O19  1  0.80628063  0.74645512  0.07255723  1  -0.559771  0.028603  2.132698  0.054  -0.513752  0.023546  2.379665  0.04  -0.545069  0.018542  2.368968  0.032  -0.279239  -0.490827  0.028352  2.387043  0.047
O  O20  1  0.37445981  0.24727095  0.57257064  1  -0.559229  0.028612  2.129291  0.054  -0.513352  0.023553  2.376996  0.04  -0.544551  0.018556  2.366114  0.032  -0.278857  -0.490426  0.028359  2.384403  0.047
O  O21  1  0.19372794  0.25355698  0.92744714  1  -0.55967  0.028598  2.132717  0.054  -0.513886  0.023547  2.379812  0.04  -0.545197  0.018542  2.369108  0.032  -0.279307  -0.490972  0.028354  2.387206  0.047
O  O22  1  0.25776866  0.09439686  0.24237842  1  -0.837245  0.033522  1.961172  0.059  -0.80682  0.028592  2.173433  0.045  -0.835612  0.022179  2.136712  0.036  -0.578771  -0.783926  0.034937  2.199324  0.055
O  O23  1  0.59460924  0.40571101  0.25751286  1  -0.839705  0.033341  1.959886  0.059  -0.809692  0.027664  2.171333  0.044  -0.838402  0.021462  2.134729  0.034  -0.579455  -0.786934  0.033834  2.197277  0.052
O  O24  1  0.74220830  0.90558150  0.75762851  1  -0.837274  0.033516  1.960951  0.059  -0.806788  0.028585  2.173318  0.045  -0.835583  0.022173  2.136599  0.036  -0.578723  -0.783896  0.03493  2.199216  0.055
O  O25  1  0.40534649  0.59430106  0.74248262  1  -0.839597  0.033338  1.959946  0.059  -0.809493  0.02766  2.171391  0.044  -0.838224  0.021458  2.134744  0.034  -0.579412  -0.786739  0.033828  2.197338  0.052
