# generated using pymatgen
data_MoH4C5NO3
_symmetry_space_group_name_H-M   'P 1'
_cell_length_a   5.43898346
_cell_length_b   5.43725539
_cell_length_c   12.06056365
_cell_angle_alpha   102.18096888
_cell_angle_beta   102.08825271
_cell_angle_gamma   94.60331781
_symmetry_Int_Tables_number   1
_chemical_formula_structural   MoH4C5NO3
_chemical_formula_sum   'Mo2 H8 C10 N2 O6'
_cell_volume   338.00632119
_cell_formula_units_Z   2
loop_
 _symmetry_equiv_pos_site_id
 _symmetry_equiv_pos_as_xyz
  1  'x, y, z'
loop_
 _atom_site_type_symbol
 _atom_site_label
 _atom_site_symmetry_multiplicity
 _atom_site_fract_x
 _atom_site_fract_y
 _atom_site_fract_z
 _atom_site_occupancy
 _atom_site_pbe_bader_spin_density
 _atom_site_pbe_cm5_charge
 _atom_site_pbe_ddec_charge
 _atom_site_pbe_ddec_spin_density
 _atom_site_pbe_ddec_sum_bond_order
 _atom_site_pbe_magmom
Mo  Mo0  1  0.65418597  0.88002339  0.52475970  1  0  1.579106  2.184735  0  4.608117  0
Mo  Mo1  1  0.12447864  0.34988552  0.47518165  1  0  1.578689  2.183919  0  4.607933  0
H  H2  1  0.85035785  0.61214828  0.29812894  1  0  0.115673  0.089961  0  1.067334  0
H  H3  1  0.38749393  0.14945185  0.70097819  1  0  0.11541  0.090364  0  1.065677  0
H  H4  1  0.75078006  0.49276563  0.08357737  1  0  0.107143  0.111548  0  1.011155  0
H  H5  1  0.50430064  0.24609947  0.91551669  1  0  0.107169  0.111112  0  1.011888  0
H  H6  1  0.07094057  0.85281004  0.08672068  1  0  0.107253  0.112499  0  1.010269  0
H  H7  1  0.14458540  0.92678089  0.91423782  1  0  0.106926  0.112311  0  1.010959  0
H  H8  1  0.19328853  0.94481068  0.30124192  1  0  0.114138  0.080327  0  1.083279  0
H  H9  1  0.05511445  0.80733878  0.69969783  1  0  0.113634  0.079828  0  1.083778  0
C  C10  1  0.67850788  0.66159659  0.24862421  1  0  0.049868  0.115979  0  3.932531  0
C  C11  1  0.33747411  0.32078253  0.75089608  1  0  0.050274  0.11643  0  3.932411  0
C  C12  1  0.62022293  0.59378568  0.12758592  1  0  -0.083155  -0.171767  0  3.938814  0
C  C13  1  0.40375232  0.37736179  0.87195115  1  0  -0.082125  -0.169948  0  3.937602  0
C  C14  1  0.40002430  0.66219912  0.06434638  1  0  0.009136  0.09671  0  4.008989  0
C  C15  1  0.33489449  0.59710621  0.93568539  1  0  0.009081  0.095683  0  4.008625  0
C  C16  1  0.24628582  0.79454612  0.12928146  1  0  -0.083287  -0.174904  0  3.935536  0
C  C17  1  0.20307863  0.75171045  0.87124341  1  0  -0.082428  -0.17413  0  3.93487  0
C  C18  1  0.31373192  0.84701697  0.25035845  1  0  0.05152  0.126958  0  3.924577  0
C  C19  1  0.15218062  0.68597400  0.75016473  1  0  0.051867  0.127577  0  3.920685  0
N  N20  1  0.52752719  0.78445412  0.31034660  1  0  -0.324797  -0.278473  0  3.464206  0
N  N21  1  0.21582308  0.47297110  0.68967630  1  0  -0.325206  -0.279754  0  3.463266  0
O  O22  1  0.71007662  0.97259836  0.67427787  1  0  -0.507673  -0.63953  0  1.652349  0
O  O23  1  0.03084387  0.29240872  0.32567525  1  0  -0.507914  -0.639269  0  1.65203  0
O  O24  1  0.33835357  0.12732233  0.49666245  1  0  -0.534614  -0.773575  0  1.963779  0
O  O25  1  0.87599200  0.66532509  0.50308614  1  0  -0.534854  -0.773458  0  1.962076  0
O  O26  1  0.36419913  0.63902925  0.50018105  1  0  -0.599633  -0.877725  0  2.15843  0
O  O27  1  0.83530775  0.16788769  0.49992006  1  0  -0.601201  -0.883409  0  2.146724  0
