# generated using pymatgen
data_CuH14PdC16(N3O)2
_symmetry_space_group_name_H-M   'P 1'
_cell_length_a   7.37574980
_cell_length_b   7.89785547
_cell_length_c   8.89356802
_cell_angle_alpha   106.28531818
_cell_angle_beta   100.43011444
_cell_angle_gamma   110.73041289
_symmetry_Int_Tables_number   1
_chemical_formula_structural   CuH14PdC16(N3O)2
_chemical_formula_sum   'Cu1 H14 Pd1 C16 N6 O2'
_cell_volume   441.83951206
_cell_formula_units_Z   1
loop_
 _symmetry_equiv_pos_site_id
 _symmetry_equiv_pos_as_xyz
  1  'x, y, z'
loop_
 _atom_site_type_symbol
 _atom_site_label
 _atom_site_symmetry_multiplicity
 _atom_site_fract_x
 _atom_site_fract_y
 _atom_site_fract_z
 _atom_site_occupancy
 _atom_site_hle17_ddec_charge
 _atom_site_hle17_ddec_spin_density
 _atom_site_hle17_ddec_sum_bond_order
 _atom_site_hle17_magmom
 _atom_site_hse06_10hf_ddec_charge
 _atom_site_hse06_10hf_ddec_spin_density
 _atom_site_hse06_10hf_ddec_sum_bond_order
 _atom_site_hse06_10hf_magmom
 _atom_site_hse06_ddec_charge
 _atom_site_hse06_ddec_spin_density
 _atom_site_hse06_ddec_sum_bond_order
 _atom_site_hse06_magmom
 _atom_site_pbe_cm5_charge
 _atom_site_pbe_ddec_charge
 _atom_site_pbe_ddec_spin_density
 _atom_site_pbe_ddec_sum_bond_order
 _atom_site_pbe_magmom
Cu  Cu0  1  0.99999723  0.49999479  0.49999786  1  0.858418  -0.726804  1.984965  -0.548  0.819543  -0.788803  2.381767  -0.643  0.894702  -0.851589  2.324159  -0.722  0.817622  0.775149  -0.743025  2.419773  -0.59
H  H1  1  0.69218171  0.48419649  0.22528281  1  0.368108  -6.8e-05  0.939188  0.0  0.338846  -2.6e-05  1.020227  0.0  0.350059  -2e-05  1.004066  0.0  0.289765  0.331113  -3.6e-05  1.031356  0.0
H  H2  1  0.30781993  0.51579793  0.77472071  1  0.368142  -6.8e-05  0.939122  0.0  0.338917  -2.6e-05  1.020161  0.0  0.350133  -2e-05  1.003997  0.0  0.289784  0.331182  -3.6e-05  1.031293  0.0
H  H3  1  0.90333561  0.52343004  0.08470102  1  0.057231  0.000607  0.934368  0.001  0.07337  0.00023  0.998336  0.0  0.072848  0.000243  0.99924  0.0  0.10268  0.073779  0.000218  0.997674  0.0
H  H4  1  0.09665698  0.47657179  0.91529967  1  0.057156  0.000609  0.934424  0.001  0.073363  0.000229  0.998305  0.0  0.072839  0.000243  0.999214  0.0  0.10269  0.073774  0.000218  0.99764  0.0
H  H5  1  0.94801331  0.76944271  0.17928497  1  0.04265  0.000535  0.96296  0.0  0.050252  0.000249  1.043026  0.0  0.051689  0.000247  1.039419  0.0  0.08031  0.049252  0.000242  1.045501  0.0
H  H6  1  0.05198207  0.23055909  0.82072287  1  0.042677  0.000526  0.962955  0.0  0.050252  0.000249  1.043034  0.0  0.051683  0.000248  1.039438  0.0  0.080307  0.049253  0.000242  1.045514  0.0
H  H7  1  0.28684894  0.83039028  0.12435865  1  0.104906  -0.000869  0.960409  -0.001  0.108195  -0.000667  1.033858  -0.001  0.110885  -0.000444  1.032852  -0.001  0.099226  0.106233  -0.000863  1.034786  -0.001
H  H8  1  0.71314627  0.16962325  0.87565099  1  0.104855  -0.00087  0.960389  -0.001  0.108176  -0.000667  1.033788  -0.001  0.110851  -0.000444  1.032798  -0.001  0.099214  0.106216  -0.000863  1.034716  -0.001
H  H9  1  0.64972504  0.91054111  0.25974407  1  0.101054  -0.000354  0.944431  -0.001  0.112188  0.0  1.000889  0.0  0.113097  8.6e-05  1.001142  0.0  0.107554  0.111591  -0.000103  1.000688  0.0
H  H10  1  0.35027413  0.08948411  0.74026909  1  0.100968  -0.000353  0.944581  -0.001  0.11219  0.0  1.000948  0.0  0.113097  8.5e-05  1.001205  0.0  0.107547  0.111591  -0.000103  1.000753  0.0
H  H11  1  0.73324508  0.82077806  0.50599880  1  0.115441  -0.000689  0.94466  -0.001  0.124676  -0.000543  1.001149  -0.001  0.126667  -0.00036  1.001633  0.0  0.109337  0.123209  -0.000703  1.001033  -0.001
H  H12  1  0.26675026  0.17922375  0.49400228  1  0.115474  -0.000683  0.944588  -0.001  0.124667  -0.000543  1.00112  -0.001  0.126673  -0.00036  1.001589  0.0  0.109341  0.1232  -0.000703  1.001003  -0.001
H  H13  1  0.44878725  0.65879863  0.60522965  1  0.08451  -0.001324  0.970278  -0.002  0.089013  -0.000942  1.03921  -0.002  0.089596  -0.000583  1.039258  -0.001  0.116997  0.088421  -0.001256  1.039427  -0.002
H  H14  1  0.55120982  0.34117385  0.39475643  1  0.084505  -0.001318  0.970421  -0.002  0.088963  -0.000942  1.039377  -0.002  0.089553  -0.000583  1.039436  -0.001  0.116975  0.088368  -0.001256  1.039594  -0.002
Pd  Pd15  1  0.00000709  0.00000903  0.99999847  1  0.139135  -0.007434  3.566292  -0.01  0.133496  -0.004471  4.110363  -0.006  0.135646  -0.001986  4.071768  -0.004  0.644784  0.133876  -0.007554  4.136684  -0.008
C  C16  1  0.02894147  0.83619665  0.80060724  1  0.085744  0.014504  3.463343  0.001  0.071386  0.002023  3.803293  -0.006  0.086281  0.005149  3.807451  -0.003  -0.009095  0.060883  -0.000542  3.801134  -0.009
C  C17  1  0.97107558  0.16381963  0.19939390  1  0.085766  0.014475  3.464321  0.001  0.07141  0.002018  3.804255  -0.006  0.086298  0.005143  3.808417  -0.003  -0.009014  0.060913  -0.000545  3.802091  -0.009
C  C18  1  0.29057200  0.18872403  0.06841271  1  0.040307  -0.000759  3.524458  -0.001  0.020109  -0.000382  3.865723  0.0  0.027271  -0.000137  3.874075  0.0  -0.026599  0.014693  -0.000679  3.860329  -0.001
C  C19  1  0.70944106  0.81128349  0.93158565  1  0.040304  -0.000759  3.524167  -0.001  0.020136  -0.00038  3.8654  0.0  0.027285  -0.000139  3.873772  0.0  -0.026576  0.014722  -0.000679  3.860004  -0.001
C  C20  1  0.95548791  0.64280563  0.20594986  1  0.08438  -0.002041  3.692864  -0.003  0.026276  -0.001259  3.954949  -0.002  0.032772  -0.000843  3.959714  -0.001  -0.068841  0.022013  -0.00163  3.951286  -0.002
C  C21  1  0.04451093  0.35719175  0.79405174  1  0.08447  -0.002037  3.692891  -0.003  0.026373  -0.00126  3.954954  -0.002  0.032866  -0.000843  3.959723  -0.001  -0.068819  0.022101  -0.00163  3.951297  -0.002
C  C22  1  0.17601535  0.69727416  0.29030862  1  0.220899  0.010982  3.703889  0.007  0.225097  0.002048  3.947921  0.001  0.233387  0.004058  3.971141  0.003  0.120585  0.219683  0.00061  3.93222  0.0
C  C23  1  0.82398075  0.30272324  0.70969260  1  0.220732  0.010977  3.703994  0.007  0.224932  0.002047  3.94806  0.001  0.233224  0.00406  3.971273  0.003  0.120573  0.219518  0.000609  3.932364  0.0
C  C24  1  0.32827951  0.79196918  0.23006673  1  -0.169038  -0.011493  3.723351  -0.013  -0.186504  -0.004272  3.976388  -0.005  -0.196284  -0.00377  3.9997  -0.005  -0.085293  -0.180072  -0.004786  3.960745  -0.006
C  C25  1  0.67171439  0.20803851  0.76993788  1  -0.168847  -0.011483  3.723292  -0.013  -0.186334  -0.004271  3.976349  -0.005  -0.196096  -0.00377  3.999662  -0.005  -0.085229  -0.179904  -0.004785  3.960706  -0.006
C  C26  1  0.53051133  0.83758634  0.30627593  1  0.029011  0.015395  3.691195  0.01  0.00788  0.004929  3.940425  0.003  0.013699  0.005544  3.958128  0.003  -0.059811  0.004196  0.004507  3.928237  0.003
C  C27  1  0.46948389  0.16242427  0.69372848  1  0.029057  0.015391  3.691517  0.01  0.007843  0.004929  3.940738  0.003  0.013665  0.005546  3.958436  0.003  -0.059797  0.004162  0.004507  3.928549  0.003
C  C28  1  0.57755585  0.78991607  0.44343688  1  -0.105972  -0.011642  3.71752  -0.013  -0.121294  -0.00429  3.972658  -0.005  -0.128712  -0.003734  3.993766  -0.005  -0.081268  -0.116495  -0.004865  3.958459  -0.006
C  C29  1  0.42244359  0.21008570  0.55656255  1  -0.105998  -0.011657  3.717681  -0.013  -0.121287  -0.00429  3.97282  -0.005  -0.128716  -0.003735  3.993927  -0.005  -0.081293  -0.116489  -0.004865  3.958617  -0.006
C  C30  1  0.41969661  0.69740679  0.49794097  1  0.120007  0.012018  3.691012  0.008  0.090674  0.002421  3.9546  0.001  0.099331  0.004407  3.974815  0.003  0.044523  0.085167  0.00096  3.94102  0.0
C  C31  1  0.58030165  0.30258034  0.50205234  1  0.119948  0.012001  3.691239  0.008  0.090687  0.00242  3.954778  0.001  0.099324  0.004408  3.975012  0.003  0.044539  0.085179  0.00096  3.941192  0.0
N  N32  1  0.04124944  0.73527755  0.68207907  1  -0.403102  -0.061213  3.121655  -0.078  -0.369305  -0.042893  3.432835  -0.057  -0.393901  -0.036223  3.441045  -0.051  -0.386367  -0.354842  -0.046976  3.428584  -0.06
N  N33  1  0.95875087  0.26470517  0.31790331  1  -0.403117  -0.061186  3.122584  -0.078  -0.369299  -0.042888  3.433703  -0.057  -0.393901  -0.036216  3.441941  -0.051  -0.386468  -0.354838  -0.046973  3.429441  -0.06
N  N34  1  0.46116042  0.30207015  0.10975759  1  -0.40064  -0.000285  2.867667  0.0  -0.349836  -0.000231  3.112097  0.0  -0.364746  -0.000105  3.126687  0.0  -0.342489  -0.339638  -0.000366  3.102273  0.0
N  N35  1  0.53884929  0.69793007  0.89023619  1  -0.400614  -0.000285  2.867448  0.0  -0.349831  -0.000232  3.111907  0.0  -0.364736  -0.000103  3.126493  0.0  -0.342463  -0.339633  -0.000366  3.102082  0.0
N  N36  1  0.22374704  0.65214290  0.42256874  1  -0.312186  -0.097987  3.308457  -0.128  -0.274155  -0.061623  3.593552  -0.086  -0.306605  -0.048829  3.61906  -0.073  -0.337435  -0.253797  -0.069896  3.577021  -0.094
N  N37  1  0.77624981  0.34784717  0.57742624  1  -0.312132  -0.097982  3.308504  -0.128  -0.27415  -0.06162  3.593632  -0.086  -0.306599  -0.048828  3.619143  -0.073  -0.337459  -0.253784  -0.069891  3.577091  -0.094
O  O38  1  0.82938686  0.58826522  0.30196969  1  -0.562075  0.001808  2.18195  0.0  -0.513389  0.001864  2.42593  0.001  -0.532497  0.002099  2.410852  0.001  -0.404978  -0.499906  0.001451  2.436039  0.0
O  O39  1  0.17061541  0.41173359  0.69803614  1  -0.562134  0.001811  2.181946  0.001  -0.513526  0.001864  2.425845  0.001  -0.532629  0.002098  2.410753  0.001  -0.405056  -0.500038  0.001451  2.435955  0.0
