# generated using pymatgen
data_ZnH9C4S4N9O4
_symmetry_space_group_name_H-M   'P 1'
_cell_length_a   7.66900296
_cell_length_b   7.72250312
_cell_length_c   7.92942872
_cell_angle_alpha   89.83777985
_cell_angle_beta   62.00081343
_cell_angle_gamma   65.61532957
_symmetry_Int_Tables_number   1
_chemical_formula_structural   ZnH9C4S4N9O4
_chemical_formula_sum   'Zn1 H9 C4 S4 N9 O4'
_cell_volume   366.85171750
_cell_formula_units_Z   1
loop_
 _symmetry_equiv_pos_site_id
 _symmetry_equiv_pos_as_xyz
  1  'x, y, z'
loop_
 _atom_site_type_symbol
 _atom_site_label
 _atom_site_symmetry_multiplicity
 _atom_site_fract_x
 _atom_site_fract_y
 _atom_site_fract_z
 _atom_site_occupancy
 _atom_site_hle17_bader_spin_density
 _atom_site_hle17_ddec_charge
 _atom_site_hle17_ddec_spin_density
 _atom_site_hle17_ddec_sum_bond_order
 _atom_site_hle17_magmom
 _atom_site_hse06_10hf_bader_spin_density
 _atom_site_hse06_10hf_ddec_charge
 _atom_site_hse06_10hf_ddec_spin_density
 _atom_site_hse06_10hf_ddec_sum_bond_order
 _atom_site_hse06_10hf_magmom
 _atom_site_hse06_bader_spin_density
 _atom_site_hse06_ddec_charge
 _atom_site_hse06_ddec_spin_density
 _atom_site_hse06_ddec_sum_bond_order
 _atom_site_hse06_magmom
 _atom_site_pbe_bader_spin_density
 _atom_site_pbe_cm5_charge
 _atom_site_pbe_ddec_charge
 _atom_site_pbe_ddec_spin_density
 _atom_site_pbe_ddec_sum_bond_order
 _atom_site_pbe_magmom
Zn  Zn0  1  0.84079455  0.47035539  0.77505069  1  0  1.045854  0  1.929851  0  0  0.871145  0  2.418987  0  0  0.90566  0  2.372896  0  0  0.718932  0.847409  0  2.450236  0
H  H1  1  0.63320336  0.79049973  0.04796031  1  0  0.340795  0  0.91936  0  0  0.318843  0  0.993367  0  0  0.326623  0  0.986972  0  0  0.28119  0.313375  0  0.997801  0
H  H2  1  0.48715881  0.79393961  0.94493474  1  0  0.34844  0  0.909732  0  0  0.332319  0  0.972123  0  0  0.33879  0  0.967152  0  0  0.284035  0.327725  0  0.975657  0
H  H3  1  0.48986822  0.67128865  0.11360574  1  0  0.340502  0  0.911358  0  0  0.329355  0  0.96592  0  0  0.335358  0  0.96165  0  0  0.284975  0.32508  0  0.969017  0
H  H4  1  0.13112517  0.14669548  0.41961333  1  0  0.335056  0  0.912961  0  0  0.305903  0  0.998163  0  0  0.315246  0  0.989397  0  0  0.298639  0.299289  0  1.00434  0
H  H5  1  0.12369918  0.11574227  0.20353079  1  0  0.346581  0  0.917921  0  0  0.327058  0  0.978469  0  0  0.335301  0  0.971838  0  0  0.300789  0.321277  0  0.983101  0
H  H6  1  0.16508778  0.43137642  0.42320499  1  0  0.327668  0  0.906136  0  0  0.32011  0  0.958815  0  0  0.326587  0  0.954248  0  0  0.292513  0.315539  0  0.962024  0
H  H7  1  0.11030493  0.73030296  0.20313911  1  0  0.342021  0  0.896863  0  0  0.327524  0  0.951928  0  0  0.33434  0  0.946908  0  0  0.307283  0.322695  0  0.955554  0
H  H8  1  0.03913212  0.74498566  0.02057980  1  0  0.365521  0  0.858919  0  0  0.344782  0  0.925398  0  0  0.352463  0  0.918811  0  0  0.314995  0.339364  0  0.930042  0
H  H9  1  0.95687149  0.09276208  0.81266649  1  0  0.356604  0  0.896752  0  0  0.342296  0  0.955591  0  0  0.350158  0  0.948966  0  0  0.290361  0.336779  0  0.960206  0
C  C10  1  0.82821616  0.31794076  0.43522516  1  0  0.39941  0  3.838899  0  0  0.361767  0  4.135598  0  0  0.383001  0  4.147953  0  0  0.243089  0.347709  0  4.126784  0
C  C11  1  0.44426938  0.53120912  0.54136085  1  0  -0.075916  0  3.681498  0  0  -0.074383  0  3.994503  0  0  -0.072996  0  4.006574  0  0  0.100394  -0.075726  0  3.986852  0
C  C12  1  0.77801888  0.86904239  0.30465839  1  0  0.381628  0  3.857821  0  0  0.347947  0  4.166615  0  0  0.367555  0  4.179515  0  0  0.233297  0.334889  0  4.157467  0
C  C13  1  0.42150379  0.04571645  0.59815654  1  0  -0.089419  0  3.724886  0  0  -0.088298  0  4.033634  0  0  -0.087671  0  4.047768  0  0  0.088891  -0.089017  0  4.024457  0
S  S14  1  0.67180132  0.36475896  0.32135070  1  0  0.116481  0  2.424368  0  0  0.113076  0  2.740612  0  0  0.114339  0  2.739652  0  0  0.121923  0.111424  0  2.741725  0
S  S15  1  0.17663430  0.66007418  0.56456099  1  0  1.270869  0  5.611206  0  0  1.172217  0  6.128921  0  0  1.21609  0  6.113325  0  0  0.540098  1.142061  0  6.138653  0
S  S16  1  0.69163152  0.92997380  0.55351362  1  0  0.092841  0  2.463327  0  0  0.088977  0  2.787322  0  0  0.09079  0  2.786247  0  0  0.1067  0.087024  0  2.788476  0
S  S17  1  0.18889181  0.16311130  0.84141731  1  0  1.253246  0  5.648327  0  0  1.158972  0  6.160631  0  0  1.202481  0  6.144833  0  0  0.52452  1.128979  0  6.170641  0
N  N18  1  0.59000468  0.70441525  0.99168051  1  0  -0.88641  0  2.925831  0  0  -0.832614  0  3.169518  0  0  -0.852822  0  3.150556  0  0  -0.783252  -0.818579  0  3.182495  0
N  N19  1  0.70468663  0.42803182  0.62004378  1  0  -0.377504  0  3.216569  0  0  -0.303514  0  3.521238  0  0  -0.324484  0  3.532004  0  0  -0.261878  -0.289581  0  3.513688  0
N  N20  1  0.48664059  0.54785015  0.67918560  1  0  -0.107392  0  3.067159  0  0  -0.103516  0  3.350692  0  0  -0.102587  0  3.363688  0  0  -0.202087  -0.10378  0  3.34187  0
N  N21  1  0.04368914  0.18959353  0.34712380  1  0  -0.626513  0  3.143666  0  0  -0.586494  0  3.386843  0  0  -0.607192  0  3.382557  0  0  -0.561663  -0.572342  0  3.389582  0
N  N22  1  0.08723966  0.51200558  0.56273159  1  0  -0.925929  0  3.023557  0  0  -0.86945  0  3.355927  0  0  -0.895951  0  3.344568  0  0  -0.608136  -0.850827  0  3.362949  0
N  N23  1  0.60823508  0.93650603  0.27230275  1  0  -0.332575  0  2.991349  0  0  -0.299809  0  3.272377  0  0  -0.31631  0  3.285663  0  0  -0.238048  -0.288613  0  3.262985  0
N  N24  1  0.40661184  0.03601647  0.44127819  1  0  -0.15675  0  3.177855  0  0  -0.134277  0  3.462627  0  0  -0.13618  0  3.477555  0  0  -0.205544  -0.13256  0  3.452323  0
N  N25  1  0.99263412  0.76349657  0.16537800  1  0  -0.618091  0  3.116032  0  0  -0.582612  0  3.353879  0  0  -0.602495  0  3.35153  0  0  -0.560879  -0.568948  0  3.355254  0
N  N26  1  0.97348709  0.21486583  0.83411832  1  0  -0.923553  0  2.973882  0  0  -0.857548  0  3.296492  0  0  -0.882824  0  3.281237  0  0  -0.607159  -0.839889  0  3.306374  0
O  O27  1  0.22870722  0.73543667  0.38589171  1  0  -0.660713  0  1.989518  0  0  -0.604482  0  2.235393  0  0  -0.625562  0  2.223721  0  0  -0.329887  -0.589419  0  2.242647  0
O  O28  1  0.03303752  0.80017225  0.75411383  1  0  -0.607429  0  1.958401  0  0  -0.548715  0  2.194162  0  0  -0.56942  0  2.182792  0  0  -0.308073  -0.534357  0  2.201731  0
O  O29  1  0.18815777  0.34091344  0.90103657  1  0  -0.615211  0  1.938012  0  0  -0.576861  0  2.184945  0  0  -0.597147  0  2.174606  0  0  -0.338038  -0.562463  0  2.19145  0
O  O30  1  0.23146066  0.01241875  0.95148214  1  0  -0.66011  0  2.021687  0  0  -0.599719  0  2.265489  0  0  -0.621142  0  2.254189  0  0  -0.32798  -0.58452  0  2.272614  0
