# generated using pymatgen
data_CuH6C3S2Cl
_symmetry_space_group_name_H-M   'P 1'
_cell_length_a   6.84632617
_cell_length_b   7.06192019
_cell_length_c   7.24080207
_cell_angle_alpha   86.39225387
_cell_angle_beta   82.49878172
_cell_angle_gamma   61.03545066
_symmetry_Int_Tables_number   1
_chemical_formula_structural   CuH6C3S2Cl
_chemical_formula_sum   'Cu2 H12 C6 S4 Cl2'
_cell_volume   303.67042058
_cell_formula_units_Z   2
loop_
 _symmetry_equiv_pos_site_id
 _symmetry_equiv_pos_as_xyz
  1  'x, y, z'
loop_
 _atom_site_type_symbol
 _atom_site_label
 _atom_site_symmetry_multiplicity
 _atom_site_fract_x
 _atom_site_fract_y
 _atom_site_fract_z
 _atom_site_occupancy
 _atom_site_pbe_bader_spin_density
 _atom_site_pbe_cm5_charge
 _atom_site_pbe_ddec_charge
 _atom_site_pbe_ddec_spin_density
 _atom_site_pbe_ddec_sum_bond_order
 _atom_site_pbe_magmom
Cu  Cu0  1  0.10276620  0.98041932  0.26814762  1  0  0.304495  0.161012  0  2.808661  0
Cu  Cu1  1  0.08327253  0.01987410  0.76818947  1  0  0.304619  0.161026  0  2.80923  0
H  H2  1  0.39251227  0.59885428  0.54143307  1  0  0.097158  0.126294  0  1.023945  0
H  H3  1  0.99065713  0.40213495  0.04205960  1  0  0.096968  0.125967  0  1.024306  0
H  H4  1  0.29618857  0.39859755  0.56800593  1  0  0.084628  0.122147  0  1.042533  0
H  H5  1  0.69397765  0.60167980  0.06845724  1  0  0.084682  0.121992  0  1.042309  0
H  H6  1  0.65882262  0.80797216  0.70384580  1  0  0.085197  0.116333  0  1.043645  0
H  H7  1  0.46686320  0.19152345  0.20348584  1  0  0.085223  0.116276  0  1.043468  0
H  H8  1  0.73053223  0.99426928  0.57434180  1  0  0.08433  0.092351  0  1.035409  0
H  H9  1  0.72493348  0.00549110  0.07405420  1  0  0.084287  0.092139  0  1.035131  0
H  H10  1  0.73349233  0.76718674  0.33713014  1  0  0.100834  0.131474  0  0.986837  0
H  H11  1  0.50121460  0.23242799  0.83673282  1  0  0.100734  0.131004  0  0.987053  0
H  H12  1  0.87965110  0.52464539  0.46850238  1  0  0.086878  0.103627  0  1.035563  0
H  H13  1  0.40452602  0.47500364  0.96834794  1  0  0.086994  0.103604  0  1.035936  0
C  C14  1  0.24825894  0.57029749  0.54663453  1  0  -0.150078  -0.229078  0  3.839429  0
C  C15  1  0.81805602  0.43012799  0.04702008  1  0  -0.150063  -0.228476  0  3.83872  0
C  C16  1  0.79003925  0.82342771  0.61017249  1  0  -0.161585  -0.179403  0  3.902786  0
C  C17  1  0.61356803  0.17630715  0.10997219  1  0  -0.161722  -0.179075  0  3.90124  0
C  C18  1  0.85799259  0.68736655  0.43633544  1  0  -0.154283  -0.172668  0  3.876376  0
C  C19  1  0.54564369  0.31238479  0.93617993  1  0  -0.154264  -0.17197  0  3.876003  0
S  S20  1  0.12792337  0.65598581  0.32929074  1  0  -0.027509  0.094245  0  3.209463  0
S  S21  1  0.78410307  0.34414837  0.82945753  1  0  -0.027147  0.094506  0  3.209249  0
S  S22  1  0.03637317  0.73065597  0.73666582  1  0  -0.040719  0.064579  0  3.129875  0
S  S23  1  0.76677977  0.26932854  0.23675511  1  0  -0.040823  0.064197  0  3.130365  0
Cl  Cl24  1  0.27093760  0.06720237  0.48469130  1  0  -0.309371  -0.431  0  1.710608  0
Cl  Cl25  1  0.33804047  0.93269388  0.98473190  1  0  -0.309463  -0.431104  0  1.711528  0
