# generated using pymatgen
data_CdH12C12(NO4)2
_symmetry_space_group_name_H-M   'P 1'
_cell_length_a   5.62365070
_cell_length_b   6.87093032
_cell_length_c   9.32053064
_cell_angle_alpha   73.64225762
_cell_angle_beta   85.64051304
_cell_angle_gamma   76.76688135
_symmetry_Int_Tables_number   1
_chemical_formula_structural   CdH12C12(NO4)2
_chemical_formula_sum   'Cd1 H12 C12 N2 O8'
_cell_volume   336.36318825
_cell_formula_units_Z   1
loop_
 _symmetry_equiv_pos_site_id
 _symmetry_equiv_pos_as_xyz
  1  'x, y, z'
loop_
 _atom_site_type_symbol
 _atom_site_label
 _atom_site_symmetry_multiplicity
 _atom_site_fract_x
 _atom_site_fract_y
 _atom_site_fract_z
 _atom_site_occupancy
 _atom_site_pbe_bader_spin_density
 _atom_site_pbe_cm5_charge
 _atom_site_pbe_ddec_charge
 _atom_site_pbe_ddec_spin_density
 _atom_site_pbe_ddec_sum_bond_order
 _atom_site_pbe_magmom
Cd  Cd0  1  0.00000799  0.99999631  0.99999467  1  0  0.759877  1.036763  0  2.097747  0
H  H1  1  0.51290412  0.87372353  0.72972317  1  0  0.134026  0.126738  0  0.999014  0
H  H2  1  0.48709963  0.12626085  0.27026023  1  0  0.134094  0.126867  0  0.998797  0
H  H3  1  0.62427233  0.86940214  0.46070920  1  0  0.113911  0.120609  0  1.031249  0
H  H4  1  0.37574561  0.13063195  0.53926952  1  0  0.113855  0.120603  0  1.031244  0
H  H5  1  0.35865099  0.56901481  0.60448948  1  0  0.115091  0.13559  0  1.02608  0
H  H6  1  0.64133755  0.43098837  0.39553255  1  0  0.115109  0.135618  0  1.025971  0
H  H7  1  0.21725902  0.57862421  0.86849895  1  0  0.131637  0.131133  0  1.01493  0
H  H8  1  0.78270386  0.42131841  0.13153808  1  0  0.131673  0.13111  0  1.015025  0
H  H9  1  0.64724669  0.28899326  0.85276588  1  0  0.277232  0.370628  0  0.982242  0
H  H10  1  0.35277668  0.71098501  0.14725755  1  0  0.277074  0.370359  0  0.982504  0
H  H11  1  0.48552257  0.23468846  0.00611042  1  0  0.282059  0.371427  0  0.976436  0
H  H12  1  0.51451917  0.76532234  0.99388278  1  0  0.281917  0.371367  0  0.976434  0
C  C13  1  0.69505091  0.80891233  0.69334991  1  0  0.04457  -0.032219  0  3.833162  0
C  C14  1  0.30494765  0.19110009  0.30665038  1  0  0.044468  -0.032427  0  3.832915  0
C  C15  1  0.76083482  0.80909719  0.54766584  1  0  -0.071086  -0.112674  0  3.977201  0
C  C16  1  0.23915443  0.19091680  0.45233565  1  0  -0.07107  -0.112614  0  3.977447  0
C  C17  1  0.00293096  0.73383382  0.51010707  1  0  -0.006181  -0.013855  0  3.955295  0
C  C18  1  0.99708709  0.26620034  0.48989309  1  0  -0.00607  -0.013839  0  3.955585  0
C  C19  1  0.17062264  0.64125699  0.62624110  1  0  -0.068939  -0.110892  0  3.928227  0
C  C20  1  0.82937405  0.35874141  0.37374935  1  0  -0.069003  -0.110975  0  3.928138  0
C  C21  1  0.09913104  0.64111277  0.77166722  1  0  0.04712  -0.015925  0  3.797339  0
C  C22  1  0.90087045  0.35888099  0.22833469  1  0  0.047012  -0.01603  0  3.798043  0
C  C23  1  0.08035477  0.76173564  0.34843656  1  0  0.20274  0.559956  0  4.241663  0
C  C24  1  0.91965496  0.23823945  0.65155815  1  0  0.202784  0.560043  0  4.242013  0
N  N25  1  0.86666509  0.73301402  0.80199478  1  0  -0.112507  0.328788  0  3.938055  0
N  N26  1  0.13331794  0.26700303  0.19799027  1  0  -0.112678  0.328622  0  3.9386  0
O  O27  1  0.80820684  0.75315323  0.93851076  1  0  -0.228289  -0.48756  0  2.075784  0
O  O28  1  0.19174514  0.24683907  0.06150136  1  0  -0.228076  -0.487302  0  2.076049  0
O  O29  1  0.91868075  0.87376265  0.25210762  1  0  -0.333958  -0.57267  0  2.238923  0
O  O30  1  0.08132931  0.12624665  0.74789492  1  0  -0.334029  -0.57275  0  2.239035  0
O  O31  1  0.29816044  0.67853545  0.32152057  1  0  -0.310913  -0.537667  0  2.20554  0
O  O32  1  0.70187534  0.32145673  0.67848111  1  0  -0.31094  -0.537726  0  2.205552  0
O  O33  1  0.65078329  0.25392167  0.96605449  1  0  -0.596383  -0.779661  0  2.114828  0
O  O34  1  0.34917313  0.74608762  0.03392703  1  0  -0.596126  -0.779434  0  2.114746  0
