# generated using pymatgen
data_H2PbCSO3F
_symmetry_space_group_name_H-M   'P 1'
_cell_length_a   4.63495745
_cell_length_b   8.88949905
_cell_length_c   11.13253629
_cell_angle_alpha   99.88089432
_cell_angle_beta   102.00689504
_cell_angle_gamma   89.97782477
_symmetry_Int_Tables_number   1
_chemical_formula_structural   H2PbCSO3F
_chemical_formula_sum   'H8 Pb4 C4 S4 O12 F4'
_cell_volume   441.70095546
_cell_formula_units_Z   4
loop_
 _symmetry_equiv_pos_site_id
 _symmetry_equiv_pos_as_xyz
  1  'x, y, z'
loop_
 _atom_site_type_symbol
 _atom_site_label
 _atom_site_symmetry_multiplicity
 _atom_site_fract_x
 _atom_site_fract_y
 _atom_site_fract_z
 _atom_site_occupancy
 _atom_site_pbe_bader_spin_density
 _atom_site_pbe_cm5_charge
 _atom_site_pbe_ddec_charge
 _atom_site_pbe_ddec_spin_density
 _atom_site_pbe_ddec_sum_bond_order
 _atom_site_pbe_magmom
H  H0  1  0.28477327  0.41444870  0.05797136  1  0  0.116446  0.155954  0  0.971981  0
H  H1  1  0.22625661  0.08539936  0.94225009  1  0  0.116806  0.156504  0  0.972132  0
H  H2  1  0.71522467  0.58555337  0.94203244  1  0  0.11644  0.155997  0  0.971952  0
H  H3  1  0.77374380  0.91460614  0.05774992  1  0  0.116799  0.156495  0  0.972109  0
H  H4  1  0.27987282  0.61433563  0.05031433  1  0  0.117166  0.157013  0  0.964277  0
H  H5  1  0.23005747  0.88554200  0.94998481  1  0  0.11722  0.157348  0  0.963619  0
H  H6  1  0.72011427  0.38566873  0.94968616  1  0  0.117169  0.157042  0  0.964348  0
H  H7  1  0.76994743  0.11446465  0.05001665  1  0  0.117227  0.157337  0  0.963686  0
Pb  Pb8  1  0.20986707  0.35199413  0.38730986  1  0  0.64766  1.275825  0  1.896173  0
Pb  Pb9  1  0.82224207  0.14791453  0.61301839  1  0  0.647945  1.276472  0  1.895619  0
Pb  Pb10  1  0.79013629  0.64798865  0.61265311  1  0  0.647665  1.275946  0  1.896102  0
Pb  Pb11  1  0.17772817  0.85207258  0.38700876  1  0  0.647891  1.276416  0  1.895674  0
C  C12  1  0.41849549  0.51436947  0.05341855  1  0  -0.14969  -0.306338  0  3.847409  0
C  C13  1  0.36497407  0.98558940  0.94668415  1  0  -0.150393  -0.30771  0  3.850279  0
C  C14  1  0.58148940  0.48563490  0.94657994  1  0  -0.149661  -0.306451  0  3.847621  0
C  C15  1  0.63503090  0.01441838  0.05332017  1  0  -0.150357  -0.307659  0  3.850332  0
S  S16  1  0.67692725  0.55379590  0.19879434  1  0  0.527781  1.239964  0  6.067592  0
S  S17  1  0.47817863  0.94636966  0.80133979  1  0  0.528566  1.239908  0  6.06621  0
S  S18  1  0.32306885  0.44621077  0.80120276  1  0  0.527726  1.239871  0  6.067484  0
S  S19  1  0.52183154  0.05361869  0.19866317  1  0  0.528545  1.239676  0  6.066574  0
O  O20  1  0.50963283  0.58075578  0.29947239  1  0  -0.314772  -0.666191  0  2.308063  0
O  O21  1  0.21039539  0.91988465  0.70063429  1  0  -0.315583  -0.666808  0  2.308796  0
O  O22  1  0.49038294  0.41924857  0.70052971  1  0  -0.314822  -0.666152  0  2.307789  0
O  O23  1  0.78960850  0.08010827  0.29936966  1  0  -0.315497  -0.666549  0  2.308721  0
O  O24  1  0.85496288  0.41592633  0.20281376  1  0  -0.321678  -0.613389  0  2.274129  0
O  O25  1  0.65265125  0.08420089  0.79770323  1  0  -0.32129  -0.61257  0  2.273021  0
O  O26  1  0.14502663  0.58408035  0.79717917  1  0  -0.321648  -0.613403  0  2.273955  0
O  O27  1  0.34734815  0.91579089  0.20229927  1  0  -0.321305  -0.612525  0  2.273007  0
O  O28  1  0.85280207  0.68951069  0.19276241  1  0  -0.32091  -0.611677  0  2.260433  0
O  O29  1  0.65960234  0.81037861  0.80704368  1  0  -0.320578  -0.610855  0  2.259957  0
O  O30  1  0.14718065  0.31049371  0.80722871  1  0  -0.320862  -0.611603  0  2.260526  0
O  O31  1  0.34040605  0.18961545  0.19295992  1  0  -0.320662  -0.610885  0  2.260002  0
F  F32  1  0.28800024  0.12534103  0.50397275  1  0  -0.302603  -0.632078  0  1.063932  0
F  F33  1  0.78379047  0.37449521  0.49589844  1  0  -0.302139  -0.63146  0  1.063945  0
F  F34  1  0.71197488  0.87465075  0.49603033  1  0  -0.30256  -0.632069  0  1.0641  0
F  F35  1  0.21627433  0.62551598  0.50410710  1  0  -0.30204  -0.631394  0  1.064077  0
