# generated using pymatgen
data_CdH6C6N2Cl2O
_symmetry_space_group_name_H-M   'P 1'
_cell_length_a   7.10120824
_cell_length_b   7.97036057
_cell_length_c   9.22807896
_cell_angle_alpha   110.75026886
_cell_angle_beta   95.63726974
_cell_angle_gamma   112.84940011
_symmetry_Int_Tables_number   1
_chemical_formula_structural   CdH6C6N2Cl2O
_chemical_formula_sum   'Cd2 H12 C12 N4 Cl4 O2'
_cell_volume   432.91615140
_cell_formula_units_Z   2
loop_
 _symmetry_equiv_pos_site_id
 _symmetry_equiv_pos_as_xyz
  1  'x, y, z'
loop_
 _atom_site_type_symbol
 _atom_site_label
 _atom_site_symmetry_multiplicity
 _atom_site_fract_x
 _atom_site_fract_y
 _atom_site_fract_z
 _atom_site_occupancy
 _atom_site_hle17_bader_spin_density
 _atom_site_hle17_ddec_charge
 _atom_site_hle17_ddec_spin_density
 _atom_site_hle17_ddec_sum_bond_order
 _atom_site_hle17_magmom
 _atom_site_hse06_10hf_bader_charge
 _atom_site_hse06_10hf_bader_spin_density
 _atom_site_hse06_10hf_ddec_charge
 _atom_site_hse06_10hf_ddec_spin_density
 _atom_site_hse06_10hf_ddec_sum_bond_order
 _atom_site_hse06_10hf_magmom
 _atom_site_hse06_bader_spin_density
 _atom_site_hse06_ddec_charge
 _atom_site_hse06_ddec_spin_density
 _atom_site_hse06_ddec_sum_bond_order
 _atom_site_hse06_magmom
 _atom_site_pbe_bader_spin_density
 _atom_site_pbe_cm5_charge
 _atom_site_pbe_ddec_charge
 _atom_site_pbe_ddec_spin_density
 _atom_site_pbe_ddec_sum_bond_order
 _atom_site_pbe_magmom
Cd  Cd0  1  0.72639642  0.97187474  0.90173318  1  0  0.992418  0  1.916116  0  1.194148  0  0.827676  0  2.379744  0  0  0.875579  0  2.336312  0  0  0.596129  0.794142  0  2.408976  0
Cd  Cd1  1  0.27360883  0.02812473  0.09826847  1  0  0.992443  0  1.916085  0  1.194051  0  0.827708  0  2.379708  0  0  0.875611  0  2.336276  0  0  0.596131  0.794173  0  2.408953  0
H  H2  1  0.73351799  0.00328604  0.33038377  1  0  0.101271  0  0.990929  0  0.121847  0  0.108414  0  1.059792  0  0  0.11173  0  1.058259  0  0  0.095833  0.105984  0  1.061036  0
H  H3  1  0.26647668  0.99671206  0.66961560  1  0  0.101268  0  0.990966  0  0.121853  0  0.108402  0  1.059822  0  0  0.111719  0  1.058288  0  0  0.095822  0.105971  0  1.061076  0
H  H4  1  0.03178971  0.34080791  0.42957206  1  0  0.101115  0  0.968007  0  0.132149  0  0.111025  0  1.029017  0  0  0.114002  0  1.027136  0  0  0.096985  0.108838  0  1.030468  0
H  H5  1  0.96820835  0.65918559  0.57042398  1  0  0.101147  0  0.967994  0  0.132141  0  0.111045  0  1.029004  0  0  0.114024  0  1.02712  0  0  0.096983  0.108863  0  1.030449  0
H  H6  1  0.22332585  0.53478275  0.72671460  1  0  0.115634  0  0.962052  0  0.153369  0  0.121851  0  1.027873  0  0  0.12523  0  1.026052  0  0  0.100917  0.119416  0  1.029289  0
H  H7  1  0.77667731  0.46521825  0.27328194  1  0  0.115693  0  0.961986  0  0.153438  0  0.121905  0  1.02781  0  0  0.125288  0  1.025984  0  0  0.100915  0.11947  0  1.029231  0
H  H8  1  0.09828887  0.37209298  0.91022295  1  0  0.082608  0  0.961766  0  0.125122  0  0.085322  0  1.035597  0  0  0.088251  0  1.032931  0  0  0.100288  0.083185  0  1.0375  0
H  H9  1  0.90171718  0.62791102  0.08977473  1  0  0.082613  0  0.961773  0  0.125096  0  0.085327  0  1.035599  0  0  0.088256  0  1.032935  0  0  0.100301  0.083186  0  1.037503  0
H  H10  1  0.51877052  0.72865400  0.27761230  1  0  0.332058  0  0.912207  0  0.501195  0  0.313523  0  0.978757  0  0  0.320836  0  0.973147  0  0  0.29065  0.308406  0  0.982643  0
H  H11  1  0.48122763  0.27134253  0.72238901  1  0  0.332034  0  0.912247  0  0.501416  0  0.313496  0  0.978793  0  0  0.320811  0  0.973183  0  0  0.290646  0.308379  0  0.982676  0
H  H12  1  0.35833599  0.54233689  0.32863542  1  0  0.347436  0  0.888462  0  0.514909  0  0.329828  0  0.951383  0  0  0.337803  0  0.944762  0  0  0.294487  0.324178  0  0.956116  0
H  H13  1  0.64166439  0.45766416  0.67136744  1  0  0.347472  0  0.888398  0  0.514923  0  0.329858  0  0.95133  0  0  0.337833  0  0.944709  0  0  0.294516  0.324208  0  0.956059  0
C  C14  1  0.75533543  0.00632268  0.56880707  1  0  0.078278  0  3.766094  0  0.520441  0  0.084802  0  4.001901  0  0  0.084773  0  4.024719  0  0  0.106995  0.084672  0  3.986587  0
C  C15  1  0.24466420  0.99367686  0.43119419  1  0  0.078302  0  3.766063  0  0.520431  0  0.084932  0  4.001755  0  0  0.084902  0  4.024572  0  0  0.107021  0.0848  0  3.986447  0
C  C16  1  0.81535564  0.08583037  0.45872332  1  0  -0.107614  0  3.694396  0  -0.078866  0  -0.129958  0  3.940764  0  0  -0.134344  0  3.962357  0  0  -0.080586  -0.127083  0  3.926447  0
C  C17  1  0.18464399  0.91416918  0.54127686  1  0  -0.10761  0  3.6944  0  -0.078886  0  -0.12997  0  3.940716  0  0  -0.134354  0  3.962306  0  0  -0.080595  -0.127097  0  3.926399  0
C  C18  1  0.98391444  0.27840773  0.51509549  1  0  0.00099  0  3.67924  0  0.034561  0  -0.016562  0  3.92907  0  0  -0.01467  0  3.946171  0  0  -0.068301  -0.017643  0  3.917419  0
C  C19  1  0.01608237  0.72159185  0.48490232  1  0  0.000898  0  3.679414  0  0.034575  0  -0.016625  0  3.929204  0  0  -0.014733  0  3.946306  0  0  -0.068315  -0.017695  0  3.917526  0
C  C20  1  0.08953256  0.38526960  0.67837449  1  0  -0.090395  0  3.695588  0  -0.051919  0  -0.106659  0  3.951  0  0  -0.110541  0  3.969174  0  0  -0.077673  -0.104206  0  3.938841  0
C  C21  1  0.91047135  0.61473292  0.32162365  1  0  -0.090477  0  3.695812  0  -0.052007  0  -0.106747  0  3.951221  0  0  -0.110633  0  3.969401  0  0  -0.07769  -0.104294  0  3.939061  0
C  C22  1  0.02077269  0.29580992  0.78116421  1  0  0.13949  0  3.678318  0  0.476462  0  0.10665  0  3.935287  0  0  0.112944  0  3.952542  0  0  0.046965  0.102589  0  3.923466  0
C  C23  1  0.97923270  0.70419561  0.21883605  1  0  0.139611  0  3.678487  0  0.476477  0  0.106779  0  3.935457  0  0  0.113078  0  3.952703  0  0  0.047043  0.102723  0  3.92364  0
C  C24  1  0.57526905  0.80040934  0.52240130  1  0  0.581896  0  3.842422  0  1.445221  0  0.53328  0  4.127013  0  0  0.562884  0  4.126975  0  0  0.242221  0.513353  0  4.126332  0
C  C25  1  0.42473000  0.19959476  0.47760456  1  0  0.581861  0  3.842446  0  1.445244  0  0.533167  0  4.12711  0  0  0.562773  0  4.127072  0  0  0.242179  0.513244  0  4.126421  0
N  N26  1  0.85725037  0.11186785  0.72726697  1  0  -0.340932  0  3.31168  0  -1.272153  0  -0.267925  0  3.562293  0  0  -0.28677  0  3.585041  0  0  -0.328307  -0.254981  0  3.546575  0
N  N27  1  0.14275147  0.88813621  0.27273367  1  0  -0.341044  0  3.31175  0  -1.272113  0  -0.268085  0  3.562355  0  0  -0.28693  0  3.585103  0  0  -0.328364  -0.255142  0  3.546646  0
N  N28  1  0.47994378  0.68356746  0.36568792  1  0  -0.644488  0  3.125885  0  -1.340666  0  -0.605184  0  3.354339  0  0  -0.628713  0  3.352323  0  0  -0.553785  -0.589075  0  3.355525  0
N  N29  1  0.52005230  0.31643062  0.63431371  1  0  -0.64445  0  3.125972  0  -1.34096  0  -0.605116  0  3.354456  0  0  -0.628646  0  3.352438  0  0  -0.553781  -0.58901  0  3.355633  0
Cl  Cl30  1  0.48195878  0.79411230  0.04402070  1  0  -0.555934  0  0.979662  0  -0.646875  0  -0.488118  0  1.253413  0  0  -0.506882  0  1.231607  0  0  -0.281051  -0.474781  0  1.268019  0
Cl  Cl31  1  0.51804366  0.20588721  0.95597967  1  0  -0.555928  0  0.979649  0  -0.64688  0  -0.488111  0  1.253398  0  0  -0.506878  0  1.231595  0  0  -0.281042  -0.474772  0  1.268001  0
Cl  Cl32  1  0.06363305  0.24760207  0.14229915  1  0  -0.568601  0  1.040299  0  -0.655417  0  -0.504997  0  1.326468  0  0  -0.523935  0  1.305751  0  0  -0.27759  -0.491507  0  1.340448  0
Cl  Cl33  1  0.93637087  0.75240045  0.85770334  1  0  -0.568606  0  1.040312  0  -0.65544  0  -0.504998  0  1.326475  0  0  -0.523935  0  1.305757  0  0  -0.277584  -0.491508  0  1.340449  0
O  O34  1  0.51857192  0.74304859  0.62860006  1  0  -0.565225  0  1.980022  0  -1.17348  0  -0.502971  0  2.218027  0  0  -0.528185  0  2.210588  0  0  -0.304188  -0.485497  0  2.222483  0
O  O35  1  0.48142631  0.25695098  0.37140218  1  0  -0.565232  0  1.979924  0  -1.173408  0  -0.502964  0  2.217952  0  0  -0.52818  0  2.210514  0  0  -0.304175  -0.485489  0  2.222406  0
