# generated using pymatgen
data_CuH16C14N4(ClO)2
_symmetry_space_group_name_H-M   'P 1'
_cell_length_a   7.30595316
_cell_length_b   7.77304367
_cell_length_c   8.32697506
_cell_angle_alpha   100.30483083
_cell_angle_beta   111.85395672
_cell_angle_gamma   106.55201830
_symmetry_Int_Tables_number   1
_chemical_formula_structural   CuH16C14N4(ClO)2
_chemical_formula_sum   'Cu1 H16 C14 N4 Cl2 O2'
_cell_volume   398.55394010
_cell_formula_units_Z   1
loop_
 _symmetry_equiv_pos_site_id
 _symmetry_equiv_pos_as_xyz
  1  'x, y, z'
loop_
 _atom_site_type_symbol
 _atom_site_label
 _atom_site_symmetry_multiplicity
 _atom_site_fract_x
 _atom_site_fract_y
 _atom_site_fract_z
 _atom_site_occupancy
 _atom_site_hle17_ddec_charge
 _atom_site_hle17_ddec_spin_density
 _atom_site_hle17_ddec_sum_bond_order
 _atom_site_hle17_magmom
 _atom_site_hse06_10hf_ddec_charge
 _atom_site_hse06_10hf_ddec_spin_density
 _atom_site_hse06_10hf_ddec_sum_bond_order
 _atom_site_hse06_10hf_magmom
 _atom_site_hse06_ddec_charge
 _atom_site_hse06_ddec_spin_density
 _atom_site_hse06_ddec_sum_bond_order
 _atom_site_hse06_magmom
 _atom_site_pbe_cm5_charge
 _atom_site_pbe_ddec_charge
 _atom_site_pbe_ddec_spin_density
 _atom_site_pbe_ddec_sum_bond_order
 _atom_site_pbe_magmom
Cu  Cu0  1  0.49999987  0.00000059  0.00000014  1  0.799934  -0.644969  1.817144  -0.466  0.779164  -0.735415  2.200927  -0.578  0.867288  -0.804663  2.130926  -0.663  0.643455  0.728732  -0.690515  2.246748  -0.527
H  H1  1  0.76503724  0.40857137  0.15151365  1  0.092898  -0.000994  0.949915  -0.002  0.099728  -0.000846  1.015174  -0.001  0.102056  -0.000611  1.012406  -0.001  0.115542  0.097906  -0.001019  1.017243  -0.001
H  H2  1  0.23495940  0.59143110  0.84848072  1  0.09292  -0.000998  0.949908  -0.002  0.09975  -0.000846  1.015155  -0.001  0.10208  -0.000612  1.012386  -0.001  0.115542  0.097921  -0.001019  1.01723  -0.001
H  H3  1  0.74158129  0.70201339  0.31123743  1  0.110884  -0.00077  0.969561  -0.001  0.118112  -0.000847  1.036051  -0.001  0.121691  -0.000622  1.034738  0.0  0.099508  0.115556  -0.001023  1.037142  -0.001
H  H4  1  0.25840849  0.29799041  0.68875137  1  0.110903  -0.00078  0.96951  -0.001  0.118124  -0.000847  1.036009  -0.001  0.121704  -0.000622  1.034694  0.0  0.099496  0.115565  -0.001023  1.037104  -0.001
H  H5  1  0.11766565  0.34777451  0.23033543  1  0.117845  -0.000526  0.962685  -0.001  0.126951  -0.000557  1.024376  -0.001  0.130577  -0.000398  1.022793  0.0  0.10028  0.12439  -0.00068  1.025576  -0.001
H  H6  1  0.88233496  0.65221967  0.76966848  1  0.117903  -0.000531  0.962584  -0.001  0.127014  -0.000557  1.024274  -0.001  0.130641  -0.000398  1.022686  0.0  0.100294  0.124455  -0.00068  1.025455  -0.001
H  H7  1  0.16956521  0.07331596  0.07709506  1  0.078432  -0.000902  0.975277  -0.002  0.083309  -0.000778  1.047412  -0.001  0.085602  -0.000553  1.044324  -0.001  0.111366  0.081387  -0.000947  1.049981  -0.001
H  H8  1  0.83044335  0.92667964  0.92290920  1  0.078453  -0.000899  0.975275  -0.002  0.08333  -0.000778  1.047396  -0.001  0.085622  -0.000553  1.044308  -0.001  0.111375  0.081415  -0.000947  1.049964  -0.001
H  H9  1  0.56537109  0.83933732  0.45646065  1  0.117655  8.8e-05  0.945021  0.0  0.12969  2e-06  1.008357  0.0  0.132434  1.2e-05  1.007557  0.0  0.102914  0.127754  -6e-06  1.009076  0.0
H  H10  1  0.43463247  0.16065687  0.54354421  1  0.117686  8.4e-05  0.944987  0.0  0.129687  2e-06  1.00838  0.0  0.132433  1.1e-05  1.007578  0.0  0.102922  0.127739  -6e-06  1.009099  0.0
H  H11  1  0.36024715  0.68889820  0.49118638  1  0.112626  0.000426  0.940239  0.0  0.126189  0.000225  1.000108  0.0  0.128223  0.000227  1.000537  0.0  0.102534  0.124878  0.000215  0.999831  0.0
H  H12  1  0.63975245  0.31109729  0.50881142  1  0.112654  0.000415  0.940191  0.0  0.126201  0.000224  1.000061  0.0  0.128237  0.000228  1.000491  0.0  0.102535  0.12488  0.000215  0.999777  0.0
H  H13  1  0.03188258  0.90529077  0.25923146  1  0.326084  -0.000103  0.919945  0.0  0.308887  -0.000309  0.985799  0.0  0.31708  -0.000208  0.978791  0.0  0.282564  0.303198  -0.000384  0.990657  0.0
H  H14  1  0.96811772  0.09471322  0.74076912  1  0.326074  -0.000112  0.919993  0.0  0.308894  -0.000309  0.98582  0.0  0.317088  -0.000208  0.978808  0.0  0.282555  0.303204  -0.000384  0.990679  0.0
H  H15  1  0.15045424  0.84924164  0.45564391  1  0.317784  -0.000556  0.954031  0.0  0.300303  -0.000758  1.021807  0.0  0.309277  -0.000571  1.01376  0.0  0.26996  0.29412  -0.000892  1.027262  0.0
H  H16  1  0.84953567  0.15075524  0.54435344  1  0.317858  -0.000561  0.953984  0.0  0.300356  -0.000758  1.02178  0.0  0.309331  -0.000571  1.013732  0.0  0.269972  0.294173  -0.000892  1.027231  0.0
C  C17  1  0.62678839  0.40347819  0.17461388  1  0.128833  0.010841  3.701072  0.008  0.098675  0.001889  3.957518  0.001  0.10891  0.003676  3.975387  0.003  0.043497  0.092275  0.000515  3.945738  0.0
C  C18  1  0.37321066  0.59652293  0.82538344  1  0.128719  0.010863  3.701103  0.008  0.098595  0.001887  3.95754  0.001  0.108829  0.003677  3.97541  0.003  0.043487  0.092197  0.000514  3.945755  0.0
C  C19  1  0.61151897  0.56482562  0.26259282  1  -0.163559  -0.010186  3.682098  -0.011  -0.181553  -0.004055  3.928044  -0.005  -0.189816  -0.003641  3.947677  -0.004  -0.084909  -0.17621  -0.004306  3.914826  -0.005
C  C20  1  0.38847559  0.43517543  0.73740066  1  -0.163523  -0.010178  3.682118  -0.011  -0.181523  -0.004053  3.928037  -0.005  -0.189788  -0.003641  3.947671  -0.004  -0.08487  -0.176186  -0.004306  3.914827  -0.005
C  C21  1  0.42918116  0.55035824  0.28731113  1  0.183472  0.012656  3.718634  0.009  0.198596  0.003974  3.951409  0.003  0.204997  0.004781  3.972428  0.003  0.016402  0.1944  0.003244  3.937179  0.002
C  C22  1  0.57081525  0.44964007  0.71268731  1  0.183455  0.012672  3.71868  0.009  0.198611  0.003971  3.951428  0.003  0.205014  0.004783  3.972448  0.003  0.016375  0.194398  0.003244  3.937192  0.002
C  C23  1  0.26520961  0.37091125  0.21745740  1  -0.158728  -0.010358  3.673451  -0.011  -0.175002  -0.003996  3.913443  -0.005  -0.18321  -0.003599  3.933105  -0.004  -0.084744  -0.169684  -0.004224  3.900171  -0.005
C  C24  1  0.73479155  0.62908431  0.78254451  1  -0.158695  -0.01036  3.673356  -0.011  -0.174984  -0.003994  3.913299  -0.005  -0.183191  -0.0036  3.93296  -0.004  -0.084696  -0.169662  -0.004224  3.900034  -0.005
C  C25  1  0.29099502  0.21600565  0.13091747  1  0.123076  0.01084  3.703557  0.008  0.094656  0.001927  3.95939  0.001  0.104024  0.0037  3.978607  0.003  0.039433  0.088754  0.000552  3.946903  0.0
C  C26  1  0.70900912  0.78398994  0.86908659  1  0.122951  0.010826  3.70361  0.008  0.094555  0.001924  3.959442  0.001  0.103922  0.0037  3.978661  0.003  0.039387  0.088645  0.000552  3.946965  0.0
C  C27  1  0.40926807  0.72008274  0.38632189  1  -0.311946  -0.000412  3.667993  -0.001  -0.348992  -0.0  3.895674  0.0  -0.355581  0.000105  3.902931  0.0  -0.155464  -0.344704  -0.000129  3.890898  0.0
C  C28  1  0.59073129  0.27991560  0.61367749  1  -0.311967  -0.000394  3.668003  -0.001  -0.348962  -0.0  3.89568  0.0  -0.355554  0.000107  3.902949  0.0  -0.15546  -0.344618  -0.000129  3.890835  0.0
C  C29  1  0.25244198  0.78704215  0.25895353  1  0.66941  0.001034  3.792334  0.001  0.633599  0.000491  4.075658  0.0  0.66321  0.000515  4.074256  0.0  0.239095  0.613843  0.000419  4.075639  0.0
C  C30  1  0.74756104  0.21296470  0.74104957  1  0.669361  0.001035  3.79241  0.001  0.633484  0.000491  4.075836  0.0  0.663088  0.000514  4.074448  0.0  0.239019  0.613725  0.000419  4.075792  0.0
N  N31  1  0.12986159  0.84344587  0.32566843  1  -0.696042  -0.001581  3.138219  -0.002  -0.652328  -0.001635  3.356739  -0.002  -0.674774  -0.001128  3.349842  -0.001  -0.576944  -0.636661  -0.002069  3.360718  -0.002
N  N32  1  0.87013961  0.15655673  0.67433341  1  -0.696122  -0.001555  3.13822  -0.001  -0.652379  -0.001634  3.356773  -0.002  -0.674824  -0.001128  3.349877  -0.001  -0.576936  -0.636714  -0.002069  3.360747  -0.002
N  N33  1  0.46916445  0.23117841  0.11108997  1  -0.307355  -0.080525  3.393701  -0.101  -0.254329  -0.053123  3.683944  -0.071  -0.287717  -0.044037  3.710037  -0.063  -0.359335  -0.234718  -0.057905  3.668533  -0.074
N  N34  1  0.53083940  0.76881998  0.88891324  1  -0.307265  -0.080519  3.393593  -0.101  -0.254296  -0.053117  3.683873  -0.071  -0.287683  -0.044034  3.709967  -0.063  -0.359354  -0.234683  -0.057901  3.668464  -0.074
Cl  Cl35  1  0.18407547  0.92290748  0.73570874  1  -0.535331  -0.106858  0.935268  -0.127  -0.524212  -0.074339  1.202555  -0.093  -0.553636  -0.056188  1.181097  -0.076  -0.273278  -0.505895  -0.085928  1.217734  -0.102
Cl  Cl36  1  0.81592844  0.07710499  0.26429313  1  -0.535356  -0.106862  0.935287  -0.127  -0.524227  -0.074342  1.202561  -0.093  -0.553647  -0.056191  1.181094  -0.076  -0.273273  -0.505907  -0.085933  1.217737  -0.102
O  O37  1  0.24373346  0.79187140  0.10769904  1  -0.606014  0.000359  1.954571  -0.001  -0.571873  0.000442  2.199365  -0.001  -0.597008  0.000871  2.191677  0.0  -0.310147  -0.554957  -0.000175  2.20438  -0.001
O  O38  1  0.75627077  0.20813829  0.89230489  1  -0.605967  0.00035  1.954592  -0.001  -0.571802  0.000442  2.199376  -0.001  -0.596929  0.00087  2.191681  0.0  -0.310101  -0.554911  -0.000174  2.20442  -0.001
