# generated using pymatgen
data_FePH3CO7
_symmetry_space_group_name_H-M   'P 1'
_cell_length_a   5.03903906
_cell_length_b   7.60084326
_cell_length_c   7.60807635
_cell_angle_alpha   95.85215750
_cell_angle_beta   101.57745471
_cell_angle_gamma   106.51021090
_symmetry_Int_Tables_number   1
_chemical_formula_structural   FePH3CO7
_chemical_formula_sum   'Fe2 P2 H6 C2 O14'
_cell_volume   269.74787165
_cell_formula_units_Z   2
loop_
 _symmetry_equiv_pos_site_id
 _symmetry_equiv_pos_as_xyz
  1  'x, y, z'
loop_
 _atom_site_type_symbol
 _atom_site_label
 _atom_site_symmetry_multiplicity
 _atom_site_fract_x
 _atom_site_fract_y
 _atom_site_fract_z
 _atom_site_occupancy
 _atom_site_hle17_ddec_charge
 _atom_site_hle17_ddec_spin_density
 _atom_site_hle17_ddec_sum_bond_order
 _atom_site_hle17_magmom
 _atom_site_hse06_10hf_ddec_charge
 _atom_site_hse06_10hf_ddec_spin_density
 _atom_site_hse06_10hf_ddec_sum_bond_order
 _atom_site_hse06_10hf_magmom
 _atom_site_hse06_ddec_charge
 _atom_site_hse06_ddec_spin_density
 _atom_site_hse06_ddec_sum_bond_order
 _atom_site_hse06_magmom
 _atom_site_pbe_cm5_charge
 _atom_site_pbe_ddec_charge
 _atom_site_pbe_ddec_spin_density
 _atom_site_pbe_ddec_sum_bond_order
 _atom_site_pbe_magmom
Fe  Fe0  1  0.03802634  0.25890711  0.29971321  1  1.56882  4.596513  2.02914  4.076  1.531224  4.623305  2.443561  4.152  1.68116  4.697518  2.335331  4.282  0.920197  1.424838  4.564444  2.517236  4.053
Fe  Fe1  1  0.96196948  0.74109077  0.70028265  1  1.56881  4.596526  2.029303  4.076  1.531235  4.623305  2.443734  4.152  1.681173  4.697519  2.335504  4.282  0.920217  1.424862  4.564673  2.517465  4.053
P  P2  1  0.64478430  0.54971375  0.28449408  1  1.840479  0.010225  4.741396  0.011  1.665106  0.017595  5.267528  0.019  1.740651  0.013403  5.204059  0.016  0.464329  1.611037  0.021256  5.311566  0.021
P  P3  1  0.35520813  0.45028552  0.71550280  1  1.840553  0.010224  4.7414  0.011  1.665156  0.017596  5.267549  0.019  1.740691  0.013403  5.20411  0.016  0.464316  1.611114  0.021254  5.311518  0.021
H  H4  1  0.74663770  0.92242393  0.39368567  1  0.449939  0.000288  0.835144  0.002  0.424  0.000921  0.891907  0.003  0.436864  0.000592  0.873744  0.003  0.31141  0.414754  0.001224  0.904933  0.004
H  H5  1  0.25336815  0.07758637  0.60632084  1  0.45007  0.000288  0.834927  0.002  0.424063  0.000921  0.89182  0.003  0.436955  0.000592  0.873621  0.003  0.311402  0.414779  0.001224  0.904896  0.004
H  H6  1  0.54646130  0.04485484  0.32486875  1  0.445401  -0.000169  0.847975  0.0  0.417753  0.000501  0.905281  0.002  0.432448  0.000174  0.884092  0.001  0.306045  0.407264  0.000799  0.920377  0.002
H  H7  1  0.45354050  0.95515129  0.67513674  1  0.445349  -0.000169  0.848051  0.0  0.417721  0.000501  0.90533  0.002  0.432418  0.000173  0.884138  0.001  0.306005  0.407228  0.000799  0.920424  0.002
H  H8  1  0.73604071  0.60748428  0.01405429  1  0.448236  -0.00028  0.849623  0.0  0.415168  5e-05  0.915618  0.001  0.427416  -0.000124  0.8981  0.0  0.319254  0.406448  0.000218  0.928037  0.001
H  H9  1  0.26394970  0.39251919  0.98594149  1  0.448231  -0.00028  0.849611  0.0  0.415157  5e-05  0.915626  0.001  0.427405  -0.000125  0.898107  0.0  0.319242  0.406437  0.000218  0.928044  0.001
C  C10  1  0.12551444  0.97358507  0.05294850  1  0.572312  -0.009881  3.868608  -0.007  0.523379  -0.000157  4.176885  0.0  0.557569  -0.00286  4.172461  -0.001  0.229744  0.500006  0.002418  4.179264  0.002
C  C11  1  0.87449481  0.02640712  0.94705509  1  0.572267  -0.009869  3.868577  -0.007  0.523253  -0.000154  4.176959  0.0  0.557451  -0.00286  4.172527  -0.001  0.229683  0.4999  0.002417  4.179315  0.002
O  O12  1  0.20395590  0.85201972  0.97159988  1  -0.531788  0.057589  2.02849  0.109  -0.502565  0.050488  2.280078  0.094  -0.540674  0.041329  2.272889  0.082  -0.27383  -0.47633  0.057284  2.284558  0.102
O  O13  1  0.79605614  0.14796143  0.02839492  1  -0.531816  0.057573  2.02873  0.109  -0.502516  0.05048  2.280299  0.094  -0.540624  0.041322  2.273106  0.082  -0.273834  -0.476267  0.057281  2.284729  0.102
O  O14  1  0.23287277  0.05930078  0.21587699  1  -0.578841  0.048013  2.1132  0.089  -0.532059  0.043925  2.356715  0.08  -0.573131  0.036165  2.349884  0.07  -0.27082  -0.503409  0.049885  2.360853  0.087
O  O15  1  0.76712914  0.94068875  0.78411742  1  -0.57866  0.048024  2.112911  0.089  -0.531932  0.043936  2.356501  0.08  -0.57301  0.036174  2.349666  0.07  -0.270687  -0.503288  0.049895  2.36063  0.087
O  O16  1  0.74646685  0.05097091  0.38204845  1  -0.825846  0.047343  1.88851  0.085  -0.790638  0.045116  2.093271  0.078  -0.827427  0.037173  2.053708  0.069  -0.566777  -0.764235  0.051493  2.120802  0.085
O  O17  1  0.25353625  0.94903792  0.61796279  1  -0.825919  0.04734  1.888411  0.085  -0.790701  0.045114  2.093272  0.078  -0.827523  0.037172  2.05365  0.069  -0.56675  -0.76427  0.051489  2.120892  0.085
O  O18  1  0.80273806  0.40808723  0.32575612  1  -0.850918  0.10317  2.014446  0.19  -0.80973  0.086003  2.325767  0.152  -0.871616  0.068812  2.308182  0.128  -0.356912  -0.766108  0.098869  2.337089  0.167
O  O19  1  0.19727258  0.59192038  0.67424283  1  -0.850958  0.103161  2.01456  0.19  -0.809729  0.085995  2.325856  0.152  -0.871616  0.068807  2.308268  0.128  -0.356927  -0.766126  0.098851  2.337176  0.168
O  O20  1  0.69783760  0.69441705  0.45569896  1  -0.873379  0.072272  1.956727  0.128  -0.810819  0.064845  2.230483  0.111  -0.859542  0.053904  2.205255  0.097  -0.352667  -0.776057  0.073288  2.247534  0.12
O  O21  1  0.30216090  0.30558639  0.54429920  1  -0.873394  0.072272  1.956791  0.128  -0.810802  0.064842  2.230541  0.111  -0.859536  0.053903  2.205324  0.097  -0.352611  -0.77603  0.073289  2.24757  0.12
O  O22  1  0.76341365  0.66861593  0.14393323  1  -0.772182  0.00955  2.010821  0.021  -0.699638  0.008592  2.23308  0.02  -0.724465  0.005467  2.200352  0.014  -0.373039  -0.681393  0.011694  2.255517  0.025
O  O23  1  0.23657273  0.33138757  0.85606069  1  -0.772211  0.009548  2.010727  0.021  -0.699659  0.008591  2.232957  0.02  -0.724478  0.005466  2.20023  0.014  -0.373042  -0.681431  0.01169  2.255398  0.025
O  O24  1  0.32219244  0.44870756  0.20288436  1  -0.892263  0.065366  1.978831  0.118  -0.831205  0.058821  2.250645  0.102  -0.879272  0.048454  2.226433  0.089  -0.356965  -0.796843  0.067029  2.266856  0.112
O  O25  1  0.67780469  0.55129308  0.79711462  1  -0.892291  0.06537  1.978804  0.118  -0.831222  0.058823  2.250592  0.102  -0.879288  0.048455  2.22638  0.089  -0.356983  -0.79688  0.067028  2.266805  0.112
