# generated using pymatgen
data_AgH4C5N4
_symmetry_space_group_name_H-M   'P 1'
_cell_length_a   4.90501889
_cell_length_b   5.20579683
_cell_length_c   11.91325537
_cell_angle_alpha   86.20650817
_cell_angle_beta   79.56899459
_cell_angle_gamma   76.42753477
_symmetry_Int_Tables_number   1
_chemical_formula_structural   AgH4C5N4
_chemical_formula_sum   'Ag2 H8 C10 N8'
_cell_volume   290.72820739
_cell_formula_units_Z   2
loop_
 _symmetry_equiv_pos_site_id
 _symmetry_equiv_pos_as_xyz
  1  'x, y, z'
loop_
 _atom_site_type_symbol
 _atom_site_label
 _atom_site_symmetry_multiplicity
 _atom_site_fract_x
 _atom_site_fract_y
 _atom_site_fract_z
 _atom_site_occupancy
 _atom_site_hle17_bader_spin_density
 _atom_site_hle17_ddec_charge
 _atom_site_hle17_ddec_spin_density
 _atom_site_hle17_ddec_sum_bond_order
 _atom_site_hle17_magmom
 _atom_site_hse06_10hf_bader_spin_density
 _atom_site_hse06_10hf_ddec_charge
 _atom_site_hse06_10hf_ddec_spin_density
 _atom_site_hse06_10hf_ddec_sum_bond_order
 _atom_site_hse06_10hf_magmom
 _atom_site_hse06_bader_spin_density
 _atom_site_hse06_ddec_charge
 _atom_site_hse06_ddec_spin_density
 _atom_site_hse06_ddec_sum_bond_order
 _atom_site_hse06_magmom
 _atom_site_pbe_bader_spin_density
 _atom_site_pbe_cm5_charge
 _atom_site_pbe_ddec_charge
 _atom_site_pbe_ddec_spin_density
 _atom_site_pbe_ddec_sum_bond_order
 _atom_site_pbe_magmom
Ag  Ag0  1  0.68180753  0.15912387  0.42111479  1  0  0.43818  0  1.57475  0  0  0.275324  0  2.074652  0  0  0.303485  0  2.025878  0  0  0.480467  0.256046  0  2.1084  0
Ag  Ag1  1  0.31817576  0.84088871  0.57888794  1  0  0.438151  0  1.574818  0  0  0.275288  0  2.074769  0  0  0.303442  0  2.025996  0  0  0.480522  0.256022  0  2.108519  0
H  H2  1  0.29942189  0.57779895  0.05933101  1  0  0.091482  0  0.97008  0  0  0.104815  0  1.030474  0  0  0.106856  0  1.030404  0  0  0.099237  0.103378  0  1.030509  0
H  H3  1  0.70058354  0.42218062  0.94067354  1  0  0.09153  0  0.970407  0  0  0.10489  0  1.030694  0  0  0.106898  0  1.030709  0  0  0.099239  0.103456  0  1.030726  0
H  H4  1  0.51859383  0.17057646  0.11224160  1  0  0.089544  0  0.985621  0  0  0.094371  0  1.059872  0  0  0.097778  0  1.057672  0  0  0.094544  0.091895  0  1.061541  0
H  H5  1  0.48141487  0.82942726  0.88776203  1  0  0.089548  0  0.985574  0  0  0.094427  0  1.059759  0  0  0.097835  0  1.057562  0  0  0.094565  0.091954  0  1.061429  0
H  H6  1  0.57705264  0.81622754  0.24112134  1  0  0.107817  0  0.931504  0  0  0.119739  0  0.999521  0  0  0.121344  0  0.998447  0  0  0.101963  0.118538  0  1.00039  0
H  H7  1  0.42291835  0.18378448  0.75888483  1  0  0.107827  0  0.931505  0  0  0.11967  0  0.999578  0  0  0.121268  0  0.998506  0  0  0.102006  0.118476  0  1.000451  0
H  H8  1  0.74968170  0.51566984  0.17093720  1  0  0.107135  0  0.946761  0  0  0.121721  0  1.011896  0  0  0.12275  0  1.012183  0  0  0.103071  0.120957  0  1.011788  0
H  H9  1  0.25032085  0.48436159  0.82907953  1  0  0.107283  0  0.946463  0  0  0.121751  0  1.011688  0  0  0.122779  0  1.011973  0  0  0.103197  0.120985  0  1.01158  0
C  C10  1  0.89757753  0.85730262  0.09690399  1  0  0.10656  0  3.73465  0  0  0.128834  0  3.966211  0  0  0.128106  0  3.991492  0  0  -0.012141  0.129354  0  3.949008  0
C  C11  1  0.10244345  0.14271566  0.90310505  1  0  0.106838  0  3.734222  0  0  0.12897  0  3.965885  0  0  0.128243  0  3.991167  0  0  -0.012046  0.129489  0  3.948686  0
C  C12  1  0.16788901  0.76334319  0.03304637  1  0  -0.11538  0  3.736791  0  0  -0.133764  0  3.978193  0  0  -0.13642  0  4.000869  0  0  -0.095389  -0.131855  0  3.962731  0
C  C13  1  0.83209571  0.23665745  0.96695827  1  0  -0.115725  0  3.736979  0  0  -0.134064  0  3.978405  0  0  -0.136733  0  4.00108  0  0  -0.095429  -0.132155  0  3.962945  0
C  C14  1  0.73019813  0.09617742  0.06294256  1  0  -0.126939  0  3.765306  0  0  -0.143144  0  4.010542  0  0  -0.145937  0  4.031786  0  0  -0.095379  -0.141138  0  3.996083  0
C  C15  1  0.26978361  0.90379109  0.93705650  1  0  -0.127162  0  3.765207  0  0  -0.143361  0  4.010494  0  0  -0.146163  0  4.031742  0  0  -0.095383  -0.141357  0  3.996041  0
C  C16  1  0.78355876  0.70098548  0.19922957  1  0  -0.242009  0  3.725421  0  0  -0.287173  0  3.958077  0  0  -0.288872  0  3.968649  0  0  -0.151063  -0.285896  0  3.950921  0
C  C17  1  0.21640824  0.29905438  0.80076855  1  0  -0.242011  0  3.725473  0  0  -0.287015  0  3.958104  0  0  -0.288692  0  3.968649  0  0  -0.151149  -0.285747  0  3.950957  0
C  C18  1  0.97890828  0.63263958  0.28434023  1  0  0.315996  0  3.757973  0  0  0.302122  0  4.027595  0  0  0.311544  0  4.044647  0  0  0.214674  0.295719  0  4.016177  0
C  C19  1  0.02110739  0.36731247  0.71565175  1  0  0.315514  0  3.758331  0  0  0.301792  0  4.027694  0  0  0.3112  0  4.044743  0  0  0.214477  0.295396  0  4.016276  0
N  N20  1  0.18664982  0.41232598  0.28512239  1  0  -0.313414  0  2.91892  0  0  -0.29117  0  3.196477  0  0  -0.300188  0  3.208962  0  0  -0.222994  -0.285075  0  3.188127  0
N  N21  1  0.81338526  0.58765897  0.71486304  1  0  -0.313363  0  2.919327  0  0  -0.291147  0  3.196843  0  0  -0.300155  0  3.209318  0  0  -0.222882  -0.285054  0  3.188495  0
N  N22  1  0.31486664  0.44053047  0.37252337  1  0  -0.07525  0  3.294949  0  0  -0.014464  0  3.61043  0  0  -0.022194  0  3.623847  0  0  -0.136576  -0.009023  0  3.601124  0
N  N23  1  0.68515675  0.55949393  0.62747776  1  0  -0.075072  0  3.295111  0  0  -0.014336  0  3.610632  0  0  -0.022059  0  3.624049  0  0  -0.13653  -0.008897  0  3.60133  0
N  N24  1  0.19198167  0.66690409  0.42362523  1  0  -0.089692  0  3.166395  0  0  -0.050866  0  3.46893  0  0  -0.05471  0  3.482902  0  0  -0.124935  -0.048171  0  3.45943  0
N  N25  1  0.80802680  0.33310764  0.57637147  1  0  -0.089926  0  3.166346  0  0  -0.051089  0  3.468931  0  0  -0.054949  0  3.482899  0  0  -0.125026  -0.048385  0  3.459434  0
N  N26  1  0.97907267  0.79096963  0.36955656  1  0  -0.293949  0  3.256861  0  0  -0.226265  0  3.561656  0  0  -0.243438  0  3.576004  0  0  -0.255546  -0.21465  0  3.55185  0
N  N27  1  0.02093806  0.20899220  0.63043131  1  0  -0.293514  0  3.256709  0  0  -0.225858  0  3.561428  0  0  -0.243017  0  3.575778  0  0  -0.255493  -0.21426  0  3.551635  0
