# generated using pymatgen
data_HgH8C6(BrN)2
_symmetry_space_group_name_H-M   'P 1'
_cell_length_a   4.08346296
_cell_length_b   10.28001128
_cell_length_c   12.15687590
_cell_angle_alpha   106.78872212
_cell_angle_beta   94.45108065
_cell_angle_gamma   99.06931767
_symmetry_Int_Tables_number   1
_chemical_formula_structural   HgH8C6(BrN)2
_chemical_formula_sum   'Hg2 H16 C12 Br4 N4'
_cell_volume   478.35226735
_cell_formula_units_Z   2
loop_
 _symmetry_equiv_pos_site_id
 _symmetry_equiv_pos_as_xyz
  1  'x, y, z'
loop_
 _atom_site_type_symbol
 _atom_site_label
 _atom_site_symmetry_multiplicity
 _atom_site_fract_x
 _atom_site_fract_y
 _atom_site_fract_z
 _atom_site_occupancy
 _atom_site_hle17_bader_spin_density
 _atom_site_hle17_ddec_charge
 _atom_site_hle17_ddec_spin_density
 _atom_site_hle17_ddec_sum_bond_order
 _atom_site_hle17_magmom
 _atom_site_hse06_10hf_bader_spin_density
 _atom_site_hse06_10hf_ddec_charge
 _atom_site_hse06_10hf_ddec_spin_density
 _atom_site_hse06_10hf_ddec_sum_bond_order
 _atom_site_hse06_10hf_magmom
 _atom_site_hse06_bader_spin_density
 _atom_site_hse06_ddec_charge
 _atom_site_hse06_ddec_spin_density
 _atom_site_hse06_ddec_sum_bond_order
 _atom_site_hse06_magmom
 _atom_site_pbe_bader_spin_density
 _atom_site_pbe_cm5_charge
 _atom_site_pbe_ddec_charge
 _atom_site_pbe_ddec_spin_density
 _atom_site_pbe_ddec_sum_bond_order
 _atom_site_pbe_magmom
Hg  Hg0  1  0.74017339  0.84719047  0.07653268  1  0  0.626996  0  2.151144  0  0  0.493237  0  2.644807  0  0  0.542517  0  2.61386  0  0  0.40512  0.459787  0  2.666356  0
Hg  Hg1  1  0.25981607  0.15281023  0.92346908  1  0  0.627007  0  2.151158  0  0  0.493253  0  2.644805  0  0  0.542523  0  2.613873  0  0  0.405133  0.459801  0  2.666366  0
H  H2  1  0.41445167  0.57462413  0.15699030  1  0  0.090201  0  0.968869  0  0  0.092727  0  1.045946  0  0  0.096013  0  1.043275  0  0  0.095768  0.090059  0  1.048624  0
H  H3  1  0.58554821  0.42538268  0.84300990  1  0  0.090219  0  0.968841  0  0  0.092726  0  1.045946  0  0  0.09601  0  1.043285  0  0  0.095754  0.090057  0  1.048625  0
H  H4  1  0.57368625  0.35333119  0.30229475  1  0  0.124835  0  0.941729  0  0  0.149213  0  0.998259  0  0  0.149899  0  0.998803  0  0  0.091581  0.148652  0  0.998121  0
H  H5  1  0.42631985  0.64666832  0.69770387  1  0  0.124818  0  0.941751  0  0  0.149197  0  0.998275  0  0  0.149884  0  0.998817  0  0  0.091589  0.148636  0  0.998135  0
H  H6  1  0.20675771  0.39567309  0.24599822  1  0  0.114155  0  0.977156  0  0  0.131796  0  1.044795  0  0  0.133378  0  1.044713  0  0  0.076688  0.13072  0  1.044808  0
H  H7  1  0.79324634  0.60432228  0.75399854  1  0  0.114126  0  0.977158  0  0  0.131766  0  1.044797  0  0  0.133346  0  1.044717  0  0  0.07667  0.130689  0  1.04481  0
H  H8  1  0.30693780  0.43070915  0.39976084  1  0  0.131799  0  0.964464  0  0  0.142416  0  1.040862  0  0  0.145421  0  1.038419  0  0  0.093349  0.140175  0  1.042648  0
H  H9  1  0.69306483  0.56928829  0.60023638  1  0  0.131749  0  0.964549  0  0  0.142362  0  1.040953  0  0  0.145367  0  1.038511  0  0  0.093346  0.14012  0  1.042741  0
H  H10  1  0.12988888  0.91540828  0.34617773  1  0  0.084384  0  0.968964  0  0  0.091034  0  1.040447  0  0  0.093823  0  1.038928  0  0  0.101533  0.08903  0  1.041621  0
H  H11  1  0.87010701  0.08459553  0.65382904  1  0  0.084329  0  0.968926  0  0  0.090979  0  1.040423  0  0  0.093766  0  1.038905  0  0  0.101523  0.088984  0  1.041579  0
H  H12  1  0.08472716  0.84344866  0.62087678  1  0  0.123795  0  0.957553  0  0  0.142331  0  1.02519  0  0  0.144086  0  1.024015  0  0  0.086951  0.140759  0  1.026467  0
H  H13  1  0.91527108  0.15654990  0.37912387  1  0  0.123805  0  0.957562  0  0  0.142344  0  1.025189  0  0  0.144098  0  1.024015  0  0  0.086954  0.140771  0  1.026464  0
H  H14  1  0.34193997  0.93943739  0.54847832  1  0  0.101329  0  0.972292  0  0  0.122677  0  1.036457  0  0  0.123595  0  1.037028  0  0  0.085128  0.121813  0  1.03646  0
H  H15  1  0.65805235  0.06055912  0.45152087  1  0  0.101384  0  0.972287  0  0  0.122722  0  1.036442  0  0  0.123641  0  1.037014  0  0  0.085148  0.121862  0  1.036438  0
H  H16  1  0.42143677  0.77689124  0.55739367  1  0  0.12802  0  0.955839  0  0  0.148885  0  1.016509  0  0  0.149661  0  1.017501  0  0  0.097475  0.148232  0  1.016088  0
H  H17  1  0.57856442  0.22310834  0.44260896  1  0  0.128017  0  0.955822  0  0  0.148887  0  1.016487  0  0  0.149671  0  1.017471  0  0  0.097485  0.148235  0  1.016067  0
C  C18  1  0.58398405  0.62691895  0.23709351  1  0  0.007991  0  3.657972  0  0  -0.030589  0  3.915573  0  0  -0.028943  0  3.934155  0  0  0.035306  -0.031808  0  3.903408  0
C  C19  1  0.41601572  0.37308268  0.76290627  1  0  0.007921  0  3.658077  0  0  -0.030626  0  3.915665  0  0  -0.02898  0  3.934241  0  0  0.035279  -0.031845  0  3.903502  0
C  C20  1  0.60710343  0.56872792  0.32821776  1  0  0.284919  0  3.719814  0  0  0.299101  0  3.965392  0  0  0.304126  0  3.985138  0  0  0.131708  0.295452  0  3.952108  0
C  C21  1  0.39290266  0.43127160  0.67178169  1  0  0.284942  0  3.719778  0  0  0.2991  0  3.965396  0  0  0.304117  0  3.985157  0  0  0.131723  0.295454  0  3.952113  0
C  C22  1  0.40913783  0.43011726  0.31863553  1  0  -0.381035  0  3.701654  0  0  -0.461946  0  3.935046  0  0  -0.465289  0  3.943053  0  0  -0.248895  -0.45925  0  3.929439  0
C  C23  1  0.59086775  0.56988121  0.68136201  1  0  -0.380919  0  3.701682  0  0  -0.461818  0  3.935106  0  0  -0.465153  0  3.943107  0  0  -0.248871  -0.459123  0  3.929493  0
C  C24  1  0.97869331  0.81647465  0.34294651  1  0  -0.015138  0  3.693904  0  0  -0.050215  0  3.945832  0  0  -0.050353  0  3.96737  0  0  0.030733  -0.050054  0  3.931467  0
C  C25  1  0.02130503  0.18352909  0.65705538  1  0  -0.015083  0  3.694034  0  0  -0.050177  0  3.945964  0  0  -0.050313  0  3.967502  0  0  0.03067  -0.050016  0  3.931608  0
C  C26  1  0.99955598  0.76093074  0.43514726  1  0  0.263511  0  3.759152  0  0  0.277581  0  4.006924  0  0  0.281857  0  4.028123  0  0  0.121657  0.274433  0  3.992601  0
C  C27  1  0.00044613  0.23906572  0.56485465  1  0  0.263382  0  3.759245  0  0  0.277504  0  4.006971  0  0  0.281777  0  4.028177  0  0  0.12168  0.274358  0  3.992649  0
C  C28  1  0.22438608  0.83504578  0.54617532  1  0  -0.372247  0  3.709622  0  0  -0.456215  0  3.943382  0  0  -0.458773  0  3.952266  0  0  -0.243411  -0.454018  0  3.93781  0
C  C29  1  0.77561113  0.16495069  0.45382399  1  0  -0.372271  0  3.709614  0  0  -0.456246  0  3.943389  0  0  -0.458813  0  3.952266  0  0  -0.243439  -0.454056  0  3.937818  0
Br  Br30  1  0.22539247  0.66942151  0.96511799  1  0  -0.353572  0  1.200394  0  0  -0.296965  0  1.53618  0  0  -0.317878  0  1.517999  0  0  -0.179671  -0.28244  0  1.550889  0
Br  Br31  1  0.77460485  0.33058015  0.03488174  1  0  -0.353578  0  1.20039  0  0  -0.296966  0  1.536165  0  0  -0.317877  0  1.517984  0  0  -0.179664  -0.282437  0  1.550878  0
Br  Br32  1  0.22457801  0.05066276  0.16615907  1  0  -0.374349  0  1.195235  0  0  -0.314485  0  1.529323  0  0  -0.336792  0  1.510608  0  0  -0.185559  -0.299017  0  1.543169  0
Br  Br33  1  0.77541829  0.94933684  0.83384178  1  0  -0.374376  0  1.195283  0  0  -0.314514  0  1.529376  0  0  -0.336821  0  1.510659  0  0  -0.185568  -0.299047  0  1.543225  0
N  N34  1  0.76984674  0.74930537  0.24543111  1  0  -0.239769  0  3.304536  0  0  -0.169106  0  3.570254  0  0  -0.185229  0  3.59455  0  0  -0.304428  -0.157909  0  3.553284  0
N  N35  1  0.23015598  0.25069730  0.75457065  1  0  -0.23971  0  3.304599  0  0  -0.169042  0  3.570296  0  0  -0.185162  0  3.594586  0  0  -0.304357  -0.157847  0  3.553337  0
N  N36  1  0.81373115  0.63724634  0.42646470  1  0  -0.345805  0  2.958859  0  0  -0.311458  0  3.201734  0  0  -0.321096  0  3.215531  0  0  -0.291038  -0.304602  0  3.192269  0
N  N37  1  0.18626954  0.36275216  0.57353271  1  0  -0.345779  0  2.958702  0  0  -0.31147  0  3.201608  0  0  -0.321105  0  3.215414  0  0  -0.291052  -0.304611  0  3.19214  0
