# generated using pymatgen
data_LiH2(C2O)2
_symmetry_space_group_name_H-M   'P 1'
_cell_length_a   5.02037083
_cell_length_b   8.45196191
_cell_length_c   8.50203718
_cell_angle_alpha   93.51056031
_cell_angle_beta   89.99939702
_cell_angle_gamma   90.00026892
_symmetry_Int_Tables_number   1
_chemical_formula_structural   LiH2(C2O)2
_chemical_formula_sum   'Li4 H8 C16 O8'
_cell_volume   360.08134551
_cell_formula_units_Z   4
loop_
 _symmetry_equiv_pos_site_id
 _symmetry_equiv_pos_as_xyz
  1  'x, y, z'
loop_
 _atom_site_type_symbol
 _atom_site_label
 _atom_site_symmetry_multiplicity
 _atom_site_fract_x
 _atom_site_fract_y
 _atom_site_fract_z
 _atom_site_occupancy
 _atom_site_hle17_bader_spin_density
 _atom_site_hle17_ddec_charge
 _atom_site_hle17_ddec_spin_density
 _atom_site_hle17_ddec_sum_bond_order
 _atom_site_hle17_magmom
 _atom_site_hse06_10hf_bader_spin_density
 _atom_site_hse06_10hf_ddec_charge
 _atom_site_hse06_10hf_ddec_spin_density
 _atom_site_hse06_10hf_ddec_sum_bond_order
 _atom_site_hse06_10hf_magmom
 _atom_site_hse06_bader_spin_density
 _atom_site_hse06_ddec_charge
 _atom_site_hse06_ddec_spin_density
 _atom_site_hse06_ddec_sum_bond_order
 _atom_site_hse06_magmom
 _atom_site_pbe_bader_spin_density
 _atom_site_pbe_cm5_charge
 _atom_site_pbe_ddec_charge
 _atom_site_pbe_ddec_spin_density
 _atom_site_pbe_ddec_sum_bond_order
 _atom_site_pbe_magmom
Li  Li0  1  0.60385308  0.99179515  0.35359611  1  0  0.865854  0  0.388969  0  0  0.830362  0  0.487957  0  0  0.838897  0  0.472035  0  0  0.533061  0.824005  0  0.499561  0
Li  Li1  1  0.10385373  0.00821106  0.14639315  1  0  0.865807  0  0.389008  0  0  0.83036  0  0.487909  0  0  0.838884  0  0.472  0  0  0.53305  0.824021  0  0.499517  0
Li  Li2  1  0.39614876  0.00819578  0.64640087  1  0  0.865863  0  0.388981  0  0  0.830368  0  0.487973  0  0  0.838906  0  0.472047  0  0  0.533068  0.824005  0  0.499573  0
Li  Li3  1  0.89615210  0.99179167  0.85359391  1  0  0.865845  0  0.388988  0  0  0.830365  0  0.487958  0  0  0.838898  0  0.472037  0  0  0.533047  0.824006  0  0.499558  0
H  H4  1  0.69521092  0.61957974  0.30926361  1  0  0.098723  0  0.959898  0  0  0.106575  0  1.025584  0  0  0.109382  0  1.025133  0  0  0.110383  0.104526  0  1.026064  0
H  H5  1  0.19519156  0.38041244  0.19074426  1  0  0.098744  0  0.959652  0  0  0.106521  0  1.02546  0  0  0.109329  0  1.025008  0  0  0.110359  0.104471  0  1.025926  0
H  H6  1  0.30482279  0.38040541  0.69075658  1  0  0.098692  0  0.959517  0  0  0.106411  0  1.025419  0  0  0.109216  0  1.02497  0  0  0.110309  0.104368  0  1.025856  0
H  H7  1  0.80481227  0.61959160  0.80926522  1  0  0.098765  0  0.959982  0  0  0.106563  0  1.025704  0  0  0.109372  0  1.025247  0  0  0.110387  0.104517  0  1.026187  0
H  H8  1  0.38553635  0.65514275  0.60821739  1  0  0.100598  0  0.975557  0  0  0.107434  0  1.042137  0  0  0.110352  0  1.04127  0  0  0.11223  0.105356  0  1.042748  0
H  H9  1  0.88555093  0.34484595  0.89179047  1  0  0.100682  0  0.975358  0  0  0.107568  0  1.041884  0  0  0.110499  0  1.041016  0  0  0.112229  0.105476  0  1.042493  0
H  H10  1  0.61445753  0.34484347  0.39178404  1  0  0.100586  0  0.975437  0  0  0.107495  0  1.041957  0  0  0.110406  0  1.041117  0  0  0.112202  0.105399  0  1.042576  0
H  H11  1  0.11447083  0.65516279  0.10821221  1  0  0.100629  0  0.975555  0  0  0.107439  0  1.04216  0  0  0.11035  0  1.041313  0  0  0.112211  0.105356  0  1.042778  0
C  C12  1  0.82760650  0.56669183  0.39284872  1  0  -0.060806  0  3.722727  0  0  -0.082955  0  3.970384  0  0  -0.083907  0  3.991267  0  0  -0.070778  -0.082286  0  3.956256  0
C  C13  1  0.32756925  0.43332882  0.10714572  1  0  -0.060656  0  3.722632  0  0  -0.082714  0  3.970215  0  0  -0.083669  0  3.991099  0  0  -0.070617  -0.082029  0  3.956074  0
C  C14  1  0.17240929  0.43333946  0.60715991  1  0  -0.060642  0  3.721561  0  0  -0.082666  0  3.969203  0  0  -0.083608  0  3.990083  0  0  -0.0706  -0.081985  0  3.955072  0
C  C15  1  0.67241267  0.56668575  0.89283963  1  0  -0.060698  0  3.721916  0  0  -0.082779  0  3.969558  0  0  -0.083714  0  3.990432  0  0  -0.070658  -0.082123  0  3.955442  0
C  C16  1  0.04363457  0.65465322  0.45530213  1  0  -0.071295  0  3.727608  0  0  -0.048077  0  3.954301  0  0  -0.054966  0  3.976394  0  0  -0.001722  -0.043492  0  3.939356  0
C  C17  1  0.54361501  0.34534232  0.04469518  1  0  -0.07143  0  3.727188  0  0  -0.048304  0  3.953954  0  0  -0.055184  0  3.976044  0  0  -0.001846  -0.043712  0  3.938984  0
C  C18  1  0.95635134  0.34529410  0.54473480  1  0  -0.071665  0  3.726425  0  0  -0.048519  0  3.953282  0  0  -0.055417  0  3.975361  0  0  -0.001864  -0.043927  0  3.938328  0
C  C19  1  0.45635496  0.65469469  0.95527730  1  0  -0.071561  0  3.726918  0  0  -0.048364  0  3.953795  0  0  -0.055269  0  3.975877  0  0  -0.001824  -0.043767  0  3.938854  0
C  C20  1  0.21561060  0.58682912  0.56258207  1  0  -0.073466  0  3.724403  0  0  -0.094805  0  3.970766  0  0  -0.096314  0  3.99236  0  0  -0.072632  -0.093692  0  3.956061  0
C  C21  1  0.71557549  0.41318551  0.93742601  1  0  -0.073662  0  3.724259  0  0  -0.095011  0  3.970577  0  0  -0.096542  0  3.992191  0  0  -0.072674  -0.093885  0  3.955868  0
C  C22  1  0.78440518  0.41319744  0.43742747  1  0  -0.073368  0  3.723247  0  0  -0.094754  0  3.969659  0  0  -0.096258  0  3.99124  0  0  -0.072493  -0.093627  0  3.954953  0
C  C23  1  0.28437655  0.58681023  0.06258301  1  0  -0.073478  0  3.723936  0  0  -0.094749  0  3.97027  0  0  -0.096248  0  3.991851  0  0  -0.072578  -0.093647  0  3.955592  0
C  C24  1  0.10219344  0.81669361  0.40167119  1  0  0.723299  0  3.878878  0  0  0.677644  0  4.17163  0  0  0.711434  0  4.159166  0  0  0.251449  0.654748  0  4.179491  0
C  C25  1  0.60218693  0.18328420  0.09832475  1  0  0.723145  0  3.880011  0  0  0.677615  0  4.1726  0  0  0.711394  0  4.160133  0  0  0.251358  0.65472  0  4.180455  0
C  C26  1  0.89780840  0.18329269  0.59834437  1  0  0.723637  0  3.880108  0  0  0.678097  0  4.172677  0  0  0.711883  0  4.160204  0  0  0.251437  0.655198  0  4.18054  0
C  C27  1  0.39782487  0.81667236  0.90167152  1  0  0.723701  0  3.879083  0  0  0.677903  0  4.172038  0  0  0.711692  0  4.159565  0  0  0.25143  0.65501  0  4.179889  0
O  O28  1  0.94123820  0.87936021  0.30696860  1  0  -0.78703  0  1.938905  0  0  -0.744712  0  2.181867  0  0  -0.763462  0  2.164174  0  0  -0.424464  -0.731592  0  2.193699  0
O  O29  1  0.44126139  0.12064386  0.19301240  1  0  -0.786785  0  1.939918  0  0  -0.744465  0  2.18271  0  0  -0.76324  0  2.165098  0  0  -0.424287  -0.73138  0  2.194598  0
O  O30  1  0.05875368  0.12063660  0.69302048  1  0  -0.787168  0  1.939607  0  0  -0.744856  0  2.182469  0  0  -0.763618  0  2.164801  0  0  -0.424433  -0.731742  0  2.194314  0
O  O31  1  0.55874842  0.87935882  0.80696642  1  0  -0.787231  0  1.93878  0  0  -0.744793  0  2.181702  0  0  -0.763578  0  2.164082  0  0  -0.42448  -0.731704  0  2.193603  0
O  O32  1  0.31819942  0.88257358  0.44920219  1  0  -0.7959  0  1.995295  0  0  -0.751519  0  2.24194  0  0  -0.771448  0  2.226132  0  0  -0.437592  -0.737619  0  2.25252  0
O  O33  1  0.81819485  0.11745175  0.05078434  1  0  -0.795763  0  1.995781  0  0  -0.751457  0  2.242365  0  0  -0.771381  0  2.226564  0  0  -0.437522  -0.73756  0  2.252947  0
O  O34  1  0.68181637  0.11743284  0.55080859  1  0  -0.795886  0  1.995424  0  0  -0.751567  0  2.242052  0  0  -0.771496  0  2.226247  0  0  -0.437544  -0.73766  0  2.252626  0
O  O35  1  0.18180101  0.88257344  0.94919337  1  0  -0.796081  0  1.994878  0  0  -0.751652  0  2.241554  0  0  -0.771576  0  2.225747  0  0  -0.4376  -0.737752  0  2.252138  0
