# generated using pymatgen
data_CuH2C2SN3
_symmetry_space_group_name_H-M   'P 1'
_cell_length_a   6.15742220
_cell_length_b   6.96454889
_cell_length_c   9.50598584
_cell_angle_alpha   95.95447001
_cell_angle_beta   89.99789792
_cell_angle_gamma   90.00013221
_symmetry_Int_Tables_number   1
_chemical_formula_structural   CuH2C2SN3
_chemical_formula_sum   'Cu4 H8 C8 S4 N12'
_cell_volume   405.45211539
_cell_formula_units_Z   4
loop_
 _symmetry_equiv_pos_site_id
 _symmetry_equiv_pos_as_xyz
  1  'x, y, z'
loop_
 _atom_site_type_symbol
 _atom_site_label
 _atom_site_symmetry_multiplicity
 _atom_site_fract_x
 _atom_site_fract_y
 _atom_site_fract_z
 _atom_site_occupancy
 _atom_site_hle17_bader_spin_density
 _atom_site_hle17_ddec_charge
 _atom_site_hle17_ddec_spin_density
 _atom_site_hle17_ddec_sum_bond_order
 _atom_site_hle17_magmom
 _atom_site_hse06_10hf_bader_spin_density
 _atom_site_hse06_10hf_ddec_charge
 _atom_site_hse06_10hf_ddec_spin_density
 _atom_site_hse06_10hf_ddec_sum_bond_order
 _atom_site_hse06_10hf_magmom
 _atom_site_hse06_bader_spin_density
 _atom_site_hse06_ddec_charge
 _atom_site_hse06_ddec_spin_density
 _atom_site_hse06_ddec_sum_bond_order
 _atom_site_hse06_magmom
 _atom_site_pbe_bader_spin_density
 _atom_site_pbe_cm5_charge
 _atom_site_pbe_ddec_charge
 _atom_site_pbe_ddec_spin_density
 _atom_site_pbe_ddec_sum_bond_order
 _atom_site_pbe_magmom
Cu  Cu0  1  0.19508240  0.57626565  0.47343875  1  0  0.363391  0  2.082771  0  0  0.288987  0  2.551923  0  0  0.293573  0  2.502778  0  0  0.378131  0.28775  0  2.58494  0
Cu  Cu1  1  0.69507585  0.92372080  0.52657170  1  0  0.363431  0  2.083059  0  0  0.289024  0  2.55224  0  0  0.293565  0  2.50311  0  0  0.378261  0.287797  0  2.585235  0
Cu  Cu2  1  0.80491060  0.42373047  0.52656964  1  0  0.363447  0  2.082647  0  0  0.289021  0  2.55185  0  0  0.293586  0  2.502669  0  0  0.378159  0.287785  0  2.584857  0
Cu  Cu3  1  0.30492852  0.07627374  0.47342923  1  0  0.363606  0  2.082997  0  0  0.289181  0  2.552149  0  0  0.293739  0  2.50306  0  0  0.378288  0.287957  0  2.585062  0
H  H4  1  0.19979323  0.76640236  0.91968189  1  0  0.282696  0  0.944651  0  0  0.255822  0  1.021469  0  0  0.264879  0  1.014247  0  0  0.313292  0.249628  0  1.026187  0
H  H5  1  0.69984463  0.73358273  0.08032929  1  0  0.282698  0  0.945193  0  0  0.256022  0  1.02167  0  0  0.265004  0  1.014511  0  0  0.313541  0.249846  0  1.026374  0
H  H6  1  0.80019977  0.23359936  0.08031741  1  0  0.28277  0  0.944622  0  0  0.25591  0  1.021401  0  0  0.264963  0  1.01418  0  0  0.313363  0.24972  0  1.026117  0
H  H7  1  0.30016948  0.26641338  0.91967805  1  0  0.282822  0  0.94478  0  0  0.255999  0  1.021455  0  0  0.265046  0  1.014233  0  0  0.313505  0.249814  0  1.026166  0
H  H8  1  0.84641994  0.85434098  0.84566351  1  0  0.086254  0  0.953053  0  0  0.092268  0  1.023385  0  0  0.094367  0  1.021025  0  0  0.12374  0.090738  0  1.025005  0
H  H9  1  0.34648838  0.64568328  0.15433769  1  0  0.086391  0  0.952605  0  0  0.092396  0  1.022959  0  0  0.094502  0  1.020601  0  0  0.123777  0.090857  0  1.024588  0
H  H10  1  0.15357956  0.14564606  0.15432219  1  0  0.086254  0  0.953075  0  0  0.092272  0  1.023385  0  0  0.09437  0  1.021023  0  0  0.123734  0.090739  0  1.025007  0
H  H11  1  0.65352574  0.35435044  0.84567633  1  0  0.086336  0  0.952806  0  0  0.092341  0  1.02314  0  0  0.094444  0  1.020785  0  0  0.123766  0.090806  0  1.024766  0
C  C12  1  0.35685597  0.85645884  0.73272881  1  0  0.352928  0  3.75642  0  0  0.321297  0  4.034291  0  0  0.339384  0  4.049421  0  0  0.202511  0.309184  0  4.024823  0
C  C13  1  0.85683214  0.64354891  0.26723187  1  0  0.35344  0  3.757538  0  0  0.321865  0  4.035403  0  0  0.339926  0  4.050531  0  0  0.202827  0.309767  0  4.025937  0
C  C14  1  0.64315327  0.14353125  0.26726551  1  0  0.353122  0  3.756153  0  0  0.32141  0  4.034157  0  0  0.339497  0  4.049289  0  0  0.202589  0.309294  0  4.024683  0
C  C15  1  0.14314786  0.35641788  0.73275040  1  0  0.353356  0  3.757226  0  0  0.321787  0  4.034978  0  0  0.33986  0  4.050111  0  0  0.202717  0.309692  0  4.025501  0
C  C16  1  0.67243647  0.84409233  0.83027938  1  0  0.21606  0  3.708241  0  0  0.158772  0  3.999881  0  0  0.172489  0  4.009826  0  0  0.135965  0.150382  0  3.992064  0
C  C17  1  0.17245608  0.65591947  0.16971493  1  0  0.215817  0  3.707931  0  0  0.158638  0  3.999584  0  0  0.172328  0  4.009561  0  0  0.136078  0.150265  0  3.991735  0
C  C18  1  0.32755978  0.15589186  0.16970824  1  0  0.215967  0  3.708116  0  0  0.158687  0  3.999742  0  0  0.17241  0  4.009693  0  0  0.135923  0.150291  0  3.99192  0
C  C19  1  0.82754179  0.34407223  0.83028792  1  0  0.215921  0  3.708343  0  0  0.15871  0  3.999925  0  0  0.172403  0  4.00991  0  0  0.136088  0.150349  0  3.992068  0
S  S20  1  0.15117362  0.87378593  0.61120737  1  0  -0.399118  0  2.717162  0  0  -0.372347  0  3.20516  0  0  -0.377659  0  3.170253  0  0  -0.240062  -0.370371  0  3.230914  0
S  S21  1  0.65123200  0.62621338  0.38875141  1  0  -0.399349  0  2.717612  0  0  -0.372568  0  3.205562  0  0  -0.37789  0  3.170674  0  0  -0.240099  -0.370578  0  3.231328  0
S  S22  1  0.84882101  0.12621280  0.38878647  1  0  -0.399158  0  2.717165  0  0  -0.372355  0  3.205164  0  0  -0.377665  0  3.170266  0  0  -0.240045  -0.370357  0  3.230899  0
S  S23  1  0.34877237  0.37378244  0.61124119  1  0  -0.399255  0  2.71747  0  0  -0.372513  0  3.205493  0  0  -0.377837  0  3.170597  0  0  -0.240055  -0.370522  0  3.231233  0
N  N24  1  0.33802759  0.79640970  0.86326343  1  0  -0.21962  0  3.420637  0  0  -0.158545  0  3.661793  0  0  -0.174192  0  3.678996  0  0  -0.278415  -0.148593  0  3.650269  0
N  N25  1  0.83800678  0.70357987  0.13673907  1  0  -0.21949  0  3.423421  0  0  -0.15853  0  3.664405  0  0  -0.174096  0  3.681685  0  0  -0.278518  -0.148603  0  3.652874  0
N  N26  1  0.66198003  0.20358482  0.13673645  1  0  -0.21964  0  3.420625  0  0  -0.158578  0  3.661838  0  0  -0.174215  0  3.679038  0  0  -0.278478  -0.148636  0  3.650319  0
N  N27  1  0.16198135  0.29642342  0.86326664  1  0  -0.219714  0  3.422261  0  0  -0.158741  0  3.663501  0  0  -0.174363  0  3.680682  0  0  -0.278624  -0.148802  0  3.651975  0
N  N28  1  0.57177509  0.88810894  0.71052154  1  0  -0.422354  0  3.336669  0  0  -0.348194  0  3.643846  0  0  -0.365133  0  3.646929  0  0  -0.396381  -0.33731  0  3.641456  0
N  N29  1  0.07172149  0.61190858  0.28946238  1  0  -0.422379  0  3.336472  0  0  -0.348391  0  3.643706  0  0  -0.365323  0  3.646827  0  0  -0.396447  -0.337502  0  3.64129  0
N  N30  1  0.42822928  0.11190583  0.28948177  1  0  -0.422444  0  3.336286  0  0  -0.348251  0  3.643451  0  0  -0.365214  0  3.646561  0  0  -0.396397  -0.337356  0  3.641006  0
N  N31  1  0.92826339  0.38811628  0.71054055  1  0  -0.422506  0  3.336481  0  0  -0.348383  0  3.643615  0  0  -0.365326  0  3.646711  0  0  -0.396472  -0.337519  0  3.641222  0
N  N32  1  0.53680421  0.78753146  0.92624803  1  0  -0.26039  0  2.970201  0  0  -0.238286  0  3.250781  0  0  -0.247871  0  3.264931  0  0  -0.239023  -0.231667  0  3.240334  0
N  N33  1  0.03673128  0.71247098  0.07379976  1  0  -0.2605  0  2.972131  0  0  -0.238315  0  3.252711  0  0  -0.24793  0  3.266887  0  0  -0.239194  -0.231686  0  3.242251  0
N  N34  1  0.46321478  0.21246755  0.07376056  1  0  -0.260423  0  2.970526  0  0  -0.238251  0  3.251099  0  0  -0.247856  0  3.26527  0  0  -0.239002  -0.23163  0  3.240646  0
N  N35  1  0.96324711  0.28756135  0.92621734  1  0  -0.260366  0  2.971795  0  0  -0.238158  0  3.25236  0  0  -0.247765  0  3.266537  0  0  -0.239042  -0.231528  0  3.241899  0
