# generated using pymatgen
data_CdH8C6(NCl)2
_symmetry_space_group_name_H-M   'P 1'
_cell_length_a   6.63022673
_cell_length_b   6.60366375
_cell_length_c   10.51708568
_cell_angle_alpha   71.68605028
_cell_angle_beta   83.97296860
_cell_angle_gamma   70.48747018
_symmetry_Int_Tables_number   1
_chemical_formula_structural   CdH8C6(NCl)2
_chemical_formula_sum   'Cd2 H16 C12 N4 Cl4'
_cell_volume   412.04775195
_cell_formula_units_Z   2
loop_
 _symmetry_equiv_pos_site_id
 _symmetry_equiv_pos_as_xyz
  1  'x, y, z'
loop_
 _atom_site_type_symbol
 _atom_site_label
 _atom_site_symmetry_multiplicity
 _atom_site_fract_x
 _atom_site_fract_y
 _atom_site_fract_z
 _atom_site_occupancy
 _atom_site_pbe_bader_spin_density
 _atom_site_pbe_cm5_charge
 _atom_site_pbe_ddec_charge
 _atom_site_pbe_ddec_spin_density
 _atom_site_pbe_ddec_sum_bond_order
 _atom_site_pbe_magmom
Cd  Cd0  1  0.49998431  0.31996938  0.36024556  1  0  0.606101  0.791325  0  2.298656  0
Cd  Cd1  1  0.99998565  0.41163900  0.17707039  1  0  0.605994  0.791081  0  2.299906  0
H  H2  1  0.77866520  0.86141205  0.08659714  1  0  0.270499  0.284227  0  0.988277  0
H  H3  1  0.22166435  0.05205810  0.08697551  1  0  0.270269  0.283527  0  0.98927  0
H  H4  1  0.60652377  0.72541287  0.09032705  1  0  0.273246  0.277584  0  0.99413  0
H  H5  1  0.39368565  0.18465217  0.09046873  1  0  0.272968  0.277607  0  0.993613  0
H  H6  1  0.05520824  0.86316887  0.88823614  1  0  0.09513  0.106465  0  1.029049  0
H  H7  1  0.94539927  0.24723064  0.88863297  1  0  0.095666  0.10745  0  1.029785  0
H  H8  1  0.44714553  0.75784842  0.89758547  1  0  0.094072  0.105364  0  1.037625  0
H  H9  1  0.55234213  0.34568456  0.89761340  1  0  0.093975  0.105348  0  1.037882  0
H  H10  1  0.72187085  0.87039667  0.45050865  1  0  0.270633  0.283731  0  0.988309  0
H  H11  1  0.27790450  0.67895717  0.45077517  1  0  0.270232  0.283091  0  0.988879  0
H  H12  1  0.89385517  0.00653509  0.44676062  1  0  0.272962  0.277039  0  0.994757  0
H  H13  1  0.10597354  0.54648041  0.44689956  1  0  0.272944  0.277683  0  0.993703  0
H  H14  1  0.44530875  0.86855384  0.64881912  1  0  0.095495  0.106937  0  1.028423  0
H  H15  1  0.55404339  0.48344738  0.64889953  1  0  0.095675  0.107101  0  1.029998  0
H  H16  1  0.05319288  0.97404256  0.63950821  1  0  0.093534  0.104434  0  1.038815  0
H  H17  1  0.94722753  0.38482996  0.63988594  1  0  0.093896  0.10535  0  1.038189  0
C  C18  1  0.74980604  0.80617495  0.90858460  1  0  0.069625  0.252641  0  4.027517  0
C  C19  1  0.25015853  0.28524334  0.90875317  1  0  0.06947  0.2518  0  4.025277  0
C  C20  1  0.92041449  0.86657112  0.83566786  1  0  -0.09988  -0.165247  0  3.980587  0
C  C21  1  0.07987561  0.29687700  0.83594959  1  0  -0.100032  -0.165256  0  3.980584  0
C  C22  1  0.58036836  0.80451201  0.84067785  1  0  -0.099731  -0.165034  0  3.983801  0
C  C23  1  0.41931751  0.35535538  0.84078606  1  0  -0.099764  -0.164767  0  3.984478  0
C  C24  1  0.75060228  0.92563360  0.62852693  1  0  0.069062  0.250469  0  4.029004  0
C  C25  1  0.24933734  0.44545268  0.62876077  1  0  0.069586  0.25173  0  4.026448  0
C  C26  1  0.58005264  0.86519592  0.70144678  1  0  -0.099717  -0.164413  0  3.979443  0
C  C27  1  0.41956647  0.43376385  0.70157763  1  0  -0.099776  -0.164902  0  3.982573  0
C  C28  1  0.92004936  0.92731164  0.69644739  1  0  -0.098802  -0.16308  0  3.985286  0
C  C29  1  0.08017389  0.37524302  0.69673154  1  0  -0.099264  -0.16403  0  3.983013  0
N  N30  1  0.75018803  0.74422934  0.05175740  1  0  -0.61474  -0.588128  0  3.40333  0
N  N31  1  0.24997018  0.20422890  0.05197964  1  0  -0.61452  -0.587626  0  3.402512  0
N  N32  1  0.75023664  0.98762435  0.48535014  1  0  -0.614822  -0.586634  0  3.403249  0
N  N33  1  0.24959163  0.52678333  0.48555704  1  0  -0.614602  -0.587561  0  3.401952  0
Cl  Cl34  1  0.73930947  0.18506202  0.15868315  1  0  -0.29125  -0.504016  0  1.251929  0
Cl  Cl35  1  0.26086804  0.65649131  0.15876036  1  0  -0.291448  -0.503547  0  1.250886  0
Cl  Cl36  1  0.76071739  0.54672413  0.37849471  1  0  -0.29119  -0.503774  0  1.251507  0
Cl  Cl37  1  0.23941495  0.07479102  0.37851884  1  0  -0.291496  -0.50397  0  1.250712  0
