# generated using pymatgen
data_ZnH2C2N3Cl
_symmetry_space_group_name_H-M   'P 1'
_cell_length_a   6.06067470
_cell_length_b   8.77975946
_cell_length_c   9.81905498
_cell_angle_alpha   89.99935997
_cell_angle_beta   90.00079530
_cell_angle_gamma   98.79276679
_symmetry_Int_Tables_number   1
_chemical_formula_structural   ZnH2C2N3Cl
_chemical_formula_sum   'Zn4 H8 C8 N12 Cl4'
_cell_volume   516.34394686
_cell_formula_units_Z   4
loop_
 _symmetry_equiv_pos_site_id
 _symmetry_equiv_pos_as_xyz
  1  'x, y, z'
loop_
 _atom_site_type_symbol
 _atom_site_label
 _atom_site_symmetry_multiplicity
 _atom_site_fract_x
 _atom_site_fract_y
 _atom_site_fract_z
 _atom_site_occupancy
 _atom_site_hle17_bader_spin_density
 _atom_site_hle17_ddec_charge
 _atom_site_hle17_ddec_spin_density
 _atom_site_hle17_ddec_sum_bond_order
 _atom_site_hle17_magmom
 _atom_site_hse06_10hf_bader_spin_density
 _atom_site_hse06_10hf_ddec_charge
 _atom_site_hse06_10hf_ddec_spin_density
 _atom_site_hse06_10hf_ddec_sum_bond_order
 _atom_site_hse06_10hf_magmom
 _atom_site_hse06_bader_spin_density
 _atom_site_hse06_ddec_charge
 _atom_site_hse06_ddec_spin_density
 _atom_site_hse06_ddec_sum_bond_order
 _atom_site_hse06_magmom
 _atom_site_pbe_bader_spin_density
 _atom_site_pbe_cm5_charge
 _atom_site_pbe_ddec_charge
 _atom_site_pbe_ddec_spin_density
 _atom_site_pbe_ddec_sum_bond_order
 _atom_site_pbe_magmom
Zn  Zn0  1  0.45402098  0.18681666  0.57737121  1  0  0.850907  0  2.102871  0  0  0.661126  0  2.590475  0  0  0.699367  0  2.546298  0  0  0.652332  0.635044  0  2.620241  0
Zn  Zn1  1  0.04597684  0.31318177  0.07737165  1  0  0.85081  0  2.102978  0  0  0.661038  0  2.590543  0  0  0.699289  0  2.546369  0  0  0.652306  0.634955  0  2.620302  0
Zn  Zn2  1  0.54598138  0.81318174  0.42262649  1  0  0.850925  0  2.10291  0  0  0.661133  0  2.590509  0  0  0.699371  0  2.546331  0  0  0.652331  0.63505  0  2.620275  0
Zn  Zn3  1  0.95402085  0.68681781  0.92262503  1  0  0.850853  0  2.102961  0  0  0.661055  0  2.590549  0  0  0.699307  0  2.546374  0  0  0.652308  0.634973  0  2.620317  0
H  H4  1  0.84042418  0.97153262  0.17530680  1  0  0.090248  0  0.968316  0  0  0.097723  0  1.038229  0  0  0.099797  0  1.035473  0  0  0.123713  0.096045  0  1.040382  0
H  H5  1  0.65956719  0.52847297  0.67529833  1  0  0.090191  0  0.968173  0  0  0.097639  0  1.038135  0  0  0.099726  0  1.035364  0  0  0.123669  0.095958  0  1.040291  0
H  H6  1  0.15958313  0.02846577  0.82469395  1  0  0.090266  0  0.968313  0  0  0.097739  0  1.038223  0  0  0.09981  0  1.03547  0  0  0.123733  0.09606  0  1.040377  0
H  H7  1  0.34042937  0.47152892  0.32469733  1  0  0.090206  0  0.968221  0  0  0.097653  0  1.038173  0  0  0.099746  0  1.035393  0  0  0.123686  0.095975  0  1.040329  0
H  H8  1  0.74732891  0.39670094  0.34702032  1  0  0.094785  0  0.962591  0  0  0.103182  0  1.030476  0  0  0.10529  0  1.02796  0  0  0.122183  0.101483  0  1.032475  0
H  H9  1  0.75266928  0.10330168  0.84701494  1  0  0.094801  0  0.962605  0  0  0.103202  0  1.030492  0  0  0.10531  0  1.027977  0  0  0.122192  0.101503  0  1.032491  0
H  H10  1  0.25267537  0.60329861  0.65297942  1  0  0.094743  0  0.962642  0  0  0.103131  0  1.03055  0  0  0.10524  0  1.028031  0  0  0.122163  0.101433  0  1.032549  0
H  H11  1  0.24732043  0.89669908  0.15298684  1  0  0.094792  0  0.962614  0  0  0.103181  0  1.03052  0  0  0.105293  0  1.027997  0  0  0.122152  0.101481  0  1.032518  0
C  C12  1  0.79098334  0.05803776  0.24296127  1  0  0.22975  0  3.688905  0  0  0.170402  0  3.951786  0  0  0.1846  0  3.964953  0  0  0.150325  0.16103  0  3.942985  0
C  C13  1  0.70902181  0.44196243  0.74296231  1  0  0.229951  0  3.689137  0  0  0.170624  0  3.952028  0  0  0.184812  0  3.965195  0  0  0.150392  0.161249  0  3.943223  0
C  C14  1  0.20902561  0.94196061  0.75703949  1  0  0.22975  0  3.688974  0  0  0.170411  0  3.951853  0  0  0.184615  0  3.965019  0  0  0.150279  0.161037  0  3.94305  0
C  C15  1  0.29097890  0.55803598  0.25703743  1  0  0.229888  0  3.688928  0  0  0.17056  0  3.951834  0  0  0.184739  0  3.965007  0  0  0.150337  0.161181  0  3.94303  0
C  C16  1  0.73834727  0.27379459  0.32752309  1  0  0.236354  0  3.675312  0  0  0.174337  0  3.946336  0  0  0.188778  0  3.958933  0  0  0.151606  0.165125  0  3.937524  0
C  C17  1  0.76165158  0.22621284  0.82752063  1  0  0.23625  0  3.675548  0  0  0.174164  0  3.946569  0  0  0.188605  0  3.959171  0  0  0.151499  0.164949  0  3.937752  0
C  C18  1  0.26165674  0.72620380  0.67247868  1  0  0.236431  0  3.675285  0  0  0.174397  0  3.946301  0  0  0.188839  0  3.958898  0  0  0.151615  0.165179  0  3.937489  0
C  C19  1  0.23834031  0.77379022  0.17248114  1  0  0.23632  0  3.67551  0  0  0.174251  0  3.946511  0  0  0.188693  0  3.959111  0  0  0.151565  0.165037  0  3.937696  0
N  N20  1  0.62746435  0.16438013  0.40601749  1  0  -0.266204  0  3.237859  0  0  -0.194095  0  3.536203  0  0  -0.210203  0  3.548601  0  0  -0.257235  -0.183274  0  3.527546  0
N  N21  1  0.87253340  0.33562189  0.90601385  1  0  -0.266274  0  3.238174  0  0  -0.194039  0  3.53642  0  0  -0.210149  0  3.548823  0  0  -0.257243  -0.183218  0  3.527761  0
N  N22  1  0.37254211  0.83562172  0.59398327  1  0  -0.266241  0  3.237841  0  0  -0.194136  0  3.536236  0  0  -0.210241  0  3.548628  0  0  -0.257257  -0.183315  0  3.527581  0
N  N23  1  0.12745987  0.66438001  0.09398589  1  0  -0.266285  0  3.238116  0  0  -0.194087  0  3.536402  0  0  -0.210198  0  3.548804  0  0  -0.257267  -0.183268  0  3.527748  0
N  N24  1  0.66169690  0.02560156  0.35173714  1  0  -0.265102  0  3.23196  0  0  -0.191224  0  3.524911  0  0  -0.207161  0  3.537392  0  0  -0.257663  -0.180793  0  3.516482  0
N  N25  1  0.83829947  0.47439987  0.85172876  1  0  -0.264988  0  3.232164  0  0  -0.191223  0  3.525168  0  0  -0.207163  0  3.537656  0  0  -0.257599  -0.180791  0  3.516742  0
N  N26  1  0.33830876  0.97439683  0.64826667  1  0  -0.265044  0  3.232019  0  0  -0.191239  0  3.52504  0  0  -0.207176  0  3.537522  0  0  -0.257635  -0.180809  0  3.516611  0
N  N27  1  0.16169682  0.52560087  0.14826690  1  0  -0.264967  0  3.232026  0  0  -0.191192  0  3.525038  0  0  -0.207132  0  3.537527  0  0  -0.257602  -0.180757  0  3.516608  0
N  N28  1  0.84265846  0.21177708  0.22433469  1  0  -0.406982  0  3.284087  0  0  -0.318662  0  3.579647  0  0  -0.341454  0  3.59038  0  0  -0.358223  -0.303457  0  3.571986  0
N  N29  1  0.65734376  0.28823370  0.72432970  1  0  -0.40713  0  3.284444  0  0  -0.318738  0  3.579911  0  0  -0.341533  0  3.590648  0  0  -0.35824  -0.303519  0  3.572244  0
N  N30  1  0.15734635  0.78822477  0.77566708  1  0  -0.407114  0  3.284318  0  0  -0.318713  0  3.579764  0  0  -0.341512  0  3.590505  0  0  -0.358225  -0.303494  0  3.572094  0
N  N31  1  0.34265333  0.71177050  0.27567003  1  0  -0.407143  0  3.284215  0  0  -0.318737  0  3.579671  0  0  -0.341535  0  3.59041  0  0  -0.358195  -0.303517  0  3.572  0
Cl  Cl32  1  0.18780071  0.33314231  0.55009178  1  0  -0.563705  0  0.918356  0  0  -0.502722  0  1.188281  0  0  -0.518949  0  1.167363  0  0  -0.327003  -0.491141  0  1.202791  0
Cl  Cl33  1  0.31218725  0.16685182  0.05008983  1  0  -0.563684  0  0.918419  0  0  -0.50272  0  1.188358  0  0  -0.518949  0  1.167436  0  0  -0.327002  -0.491137  0  1.202865  0
Cl  Cl34  1  0.81219209  0.66685036  0.44990898  1  0  -0.563693  0  0.91838  0  0  -0.502723  0  1.188318  0  0  -0.518946  0  1.167399  0  0  -0.326996  -0.49114  0  1.202828  0
Cl  Cl35  1  0.68781017  0.83314661  0.94991093  1  0  -0.563667  0  0.918401  0  0  -0.5027  0  1.188324  0  0  -0.518925  0  1.167401  0  0  -0.326997  -0.491119  0  1.202834  0
