# generated using pymatgen
data_CoH16C14N4(ClO)2
_symmetry_space_group_name_H-M   'P 1'
_cell_length_a   7.15874609
_cell_length_b   7.67224933
_cell_length_c   8.09865980
_cell_angle_alpha   97.36206222
_cell_angle_beta   109.04957795
_cell_angle_gamma   106.85135261
_symmetry_Int_Tables_number   1
_chemical_formula_structural   CoH16C14N4(ClO)2
_chemical_formula_sum   'Co1 H16 C14 N4 Cl2 O2'
_cell_volume   390.00537852
_cell_formula_units_Z   1
loop_
 _symmetry_equiv_pos_site_id
 _symmetry_equiv_pos_as_xyz
  1  'x, y, z'
loop_
 _atom_site_type_symbol
 _atom_site_label
 _atom_site_symmetry_multiplicity
 _atom_site_fract_x
 _atom_site_fract_y
 _atom_site_fract_z
 _atom_site_occupancy
 _atom_site_hse06_10hf_ddec_charge
 _atom_site_hse06_10hf_ddec_spin_density
 _atom_site_hse06_10hf_ddec_sum_bond_order
 _atom_site_hse06_10hf_magmom
 _atom_site_hse06_ddec_charge
 _atom_site_hse06_ddec_spin_density
 _atom_site_hse06_ddec_sum_bond_order
 _atom_site_hse06_magmom
 _atom_site_pbe_cm5_charge
 _atom_site_pbe_ddec_charge
 _atom_site_pbe_ddec_spin_density
 _atom_site_pbe_ddec_sum_bond_order
 _atom_site_pbe_magmom
Co  Co0  1  0.99999978  0.50000176  0.99999927  1  0.656703  1.0511  2.845168  0.995  0.723943  1.045583  2.77275  0.996  0.528798  0.618243  1.046968  2.889916  0.983
H  H1  1  0.72533828  0.11012655  0.85705167  1  0.096384  -0.000253  1.026214  0.0  0.099186  -0.000198  1.022563  0.0  0.114371  0.094176  -0.000285  1.029103  0.0
H  H2  1  0.27466015  0.88987583  0.14294611  1  0.096355  -0.000253  1.026274  0.0  0.099156  -0.000197  1.022627  0.0  0.114366  0.094148  -0.000285  1.029164  0.0
H  H3  1  0.91884118  0.66385132  0.56878072  1  0.129536  6.8e-05  1.017541  0.0  0.133018  3.6e-05  1.015834  0.0  0.100696  0.126886  9.7e-05  1.019086  0.0
H  H4  1  0.08115643  0.33614826  0.43122637  1  0.129559  6.8e-05  1.017534  0.0  0.133042  3.6e-05  1.015826  0.0  0.100709  0.12691  9.7e-05  1.019082  0.0
H  H5  1  0.11254685  0.80590163  0.50278132  1  0.124416  -0.00029  1.006297  0.0  0.126318  -0.000186  1.006959  0.0  0.101817  0.123107  -0.000405  1.005934  0.0
H  H6  1  0.88744536  0.19409231  0.49721618  1  0.124441  -0.00029  1.006349  0.0  0.126344  -0.000185  1.007013  0.0  0.101802  0.123131  -0.000405  1.005986  0.0
H  H7  1  0.74233792  0.81636700  0.70110497  1  0.114501  -8.4e-05  1.046676  0.0  0.118183  -8.9e-05  1.045498  0.0  0.098606  0.111686  -7.4e-05  1.047875  0.0
H  H8  1  0.25766243  0.18363678  0.29888980  1  0.114463  -8.4e-05  1.046626  0.0  0.118145  -9e-05  1.045449  0.0  0.098607  0.111651  -7.4e-05  1.047822  0.0
H  H9  1  0.38141682  0.13729296  0.77356109  1  0.123634  -0.000171  1.021178  0.0  0.127532  -0.000159  1.019435  0.0  0.10094  0.120673  -0.000171  1.022778  0.0
H  H10  1  0.61858353  0.86270242  0.22644496  1  0.123619  -0.000171  1.021064  0.0  0.127517  -0.000159  1.01932  0.0  0.100928  0.120664  -0.000171  1.022655  0.0
H  H11  1  0.33709342  0.41414832  0.92580433  1  0.084335  -0.000244  1.051403  0.0  0.087626  -0.000192  1.046458  0.0  0.111251  0.081592  -0.000266  1.055618  0.0
H  H12  1  0.66290974  0.58585126  0.07419189  1  0.084329  -0.000244  1.051415  0.0  0.087622  -0.000192  1.046472  0.0  0.111256  0.081585  -0.000266  1.05563  0.0
H  H13  1  0.33880695  0.65605386  0.53232500  1  0.300231  9.3e-05  1.015619  0.0  0.308849  5.6e-05  1.00851  0.0  0.273956  0.294167  0.000138  1.020559  0.0
H  H14  1  0.66119100  0.34394711  0.46767495  1  0.300233  9.3e-05  1.015609  0.0  0.308851  5.6e-05  1.008499  0.0  0.273956  0.294169  0.000138  1.02055  0.0
H  H15  1  0.45868497  0.59105903  0.72764253  1  0.308817  -0.000157  0.987873  0.0  0.317138  -0.000125  0.980956  0.0  0.283751  0.302934  -0.000164  0.992684  0.0
H  H16  1  0.54132045  0.40894617  0.27235625  1  0.308776  -0.000156  0.987901  0.0  0.317097  -0.000124  0.980984  0.0  0.283736  0.302893  -0.000164  0.992713  0.0
C  C17  1  0.23129461  0.70219699  0.73659377  1  0.636566  0.004202  4.049101  0.006  0.666176  0.003237  4.048534  0.005  0.248081  0.616456  0.005163  4.048351  0.008
C  C18  1  0.76870570  0.29780542  0.26341811  1  0.636548  0.004202  4.048949  0.006  0.666179  0.003236  4.04835  0.005  0.248102  0.616437  0.005164  4.048197  0.008
C  C19  1  0.06179279  0.94987856  0.71996025  1  0.194897  -0.005709  3.953987  -0.004  0.203584  -0.00371  3.973122  -0.002  0.01103  0.188501  -0.007949  3.941548  -0.005
C  C20  1  0.93820814  0.05011540  0.28003465  1  0.195045  -0.00571  3.954512  -0.004  0.20374  -0.003707  3.973638  -0.002  0.011038  0.188644  -0.00795  3.942084  -0.005
C  C21  1  0.86581122  0.10895931  0.83313243  1  0.088705  -0.005835  3.950582  -0.004  0.100369  -0.004278  3.964626  -0.003  0.03912  0.08057  -0.007304  3.942186  -0.004
C  C22  1  0.13419386  0.89104870  0.16686786  1  0.0888  -0.005839  3.95052  -0.004  0.100466  -0.00428  3.964562  -0.003  0.039125  0.080667  -0.007307  3.94213  -0.004
C  C23  1  0.07381513  0.77717909  0.61956885  1  -0.351161  -0.000575  3.902643  0.0  -0.35773  -0.00045  3.908353  0.0  -0.155989  -0.346704  -0.000676  3.899224  0.0
C  C24  1  0.92618843  0.22281348  0.38043399  1  -0.351236  -0.000574  3.902652  0.0  -0.357814  -0.00045  3.908353  0.0  -0.155968  -0.346777  -0.000676  3.899233  0.0
C  C25  1  0.87750621  0.94654126  0.74651063  1  -0.187176  0.000245  3.950142  0.001  -0.195715  0.000469  3.968203  0.001  -0.089807  -0.181777  0.000181  3.938987  0.001
C  C26  1  0.12248312  0.05345268  0.25348858  1  -0.187181  0.000246  3.950649  0.001  -0.195723  0.000469  3.968707  0.001  -0.089785  -0.181784  0.000181  3.939499  0.001
C  C27  1  0.23151253  0.12122775  0.78779861  1  -0.185582  0.000273  3.929433  0.001  -0.194371  0.000495  3.947648  0.001  -0.087366  -0.180088  0.000191  3.918253  0.001
C  C28  1  0.76849932  0.87877467  0.21220648  1  -0.185696  0.000273  3.929732  0.001  -0.194486  0.000495  3.947945  0.001  -0.087404  -0.180206  0.000191  3.918543  0.001
C  C29  1  0.20968437  0.27840304  0.87362850  1  0.093861  -0.005622  3.939476  -0.004  0.105262  -0.004244  3.954174  -0.003  0.03842  0.085776  -0.006903  3.930985  -0.004
C  C30  1  0.79031509  0.72159794  0.12637308  1  0.093941  -0.005625  3.939366  -0.004  0.105339  -0.004244  3.954067  -0.003  0.038439  0.085861  -0.006905  3.930879  -0.004
N  N31  1  0.02887032  0.27491641  0.89454004  1  -0.218404  -0.014103  3.70316  -0.01  -0.246074  -0.013018  3.721378  -0.01  -0.350919  -0.20209  -0.013829  3.691984  -0.01
N  N32  1  0.97113036  0.72508456  0.10545322  1  -0.218553  -0.014103  3.702914  -0.01  -0.246222  -0.013019  3.721131  -0.01  -0.350964  -0.202252  -0.013831  3.691751  -0.01
N  N33  1  0.35892176  0.65540007  0.66363248  1  -0.646145  0.002868  3.355191  0.004  -0.669485  0.002079  3.349743  0.003  -0.572757  -0.629496  0.0039  3.358241  0.006
N  N34  1  0.64107670  0.34460231  0.33636655  1  -0.645987  0.002869  3.355237  0.004  -0.66933  0.002079  3.349782  0.003  -0.572691  -0.629338  0.003901  3.358285  0.006
Cl  Cl35  1  0.29566643  0.55589094  0.24766622  1  -0.489547  -0.009936  1.358064  -0.008  -0.519034  -0.010149  1.336409  -0.009  -0.235397  -0.468218  -0.007373  1.371963  -0.006
Cl  Cl36  1  0.70433029  0.44411425  0.75233642  1  -0.489522  -0.009937  1.358065  -0.008  -0.519008  -0.01015  1.33641  -0.009  -0.235387  -0.46819  -0.007374  1.371955  -0.006
O  O37  1  0.23944324  0.68323522  0.88962719  1  -0.546208  0.009682  2.272364  0.013  -0.572793  0.007635  2.264398  0.01  -0.294212  -0.527261  0.012248  2.277049  0.017
O  O38  1  0.76055496  0.31676294  0.11036876  1  -0.546298  0.009682  2.272139  0.013  -0.5729  0.007635  2.264164  0.01  -0.294255  -0.527346  0.012249  2.276822  0.017
