# generated using pymatgen
data_CuH6(C3N2)2
_symmetry_space_group_name_H-M   'P 1'
_cell_length_a   7.75897102
_cell_length_b   7.87873259
_cell_length_c   7.85287487
_cell_angle_alpha   120.10854613
_cell_angle_beta   119.60551573
_cell_angle_gamma   90.00001069
_symmetry_Int_Tables_number   1
_chemical_formula_structural   CuH6(C3N2)2
_chemical_formula_sum   'Cu2 H12 C12 N8'
_cell_volume   340.90392947
_cell_formula_units_Z   2
loop_
 _symmetry_equiv_pos_site_id
 _symmetry_equiv_pos_as_xyz
  1  'x, y, z'
loop_
 _atom_site_type_symbol
 _atom_site_label
 _atom_site_symmetry_multiplicity
 _atom_site_fract_x
 _atom_site_fract_y
 _atom_site_fract_z
 _atom_site_occupancy
 _atom_site_hle17_ddec_charge
 _atom_site_hle17_ddec_spin_density
 _atom_site_hle17_ddec_sum_bond_order
 _atom_site_hle17_magmom
 _atom_site_hse06_10hf_ddec_charge
 _atom_site_hse06_10hf_ddec_spin_density
 _atom_site_hse06_10hf_ddec_sum_bond_order
 _atom_site_hse06_10hf_magmom
 _atom_site_hse06_ddec_charge
 _atom_site_hse06_ddec_spin_density
 _atom_site_hse06_ddec_sum_bond_order
 _atom_site_hse06_magmom
 _atom_site_pbe_cm5_charge
 _atom_site_pbe_ddec_charge
 _atom_site_pbe_ddec_spin_density
 _atom_site_pbe_ddec_sum_bond_order
 _atom_site_pbe_magmom
Cu  Cu0  1  0.75000070  0.49999886  0.00000119  1  0.646772  0.625853  2.098381  0.463  0.593458  0.742887  2.519139  0.593  0.678298  0.839467  2.460621  0.692  0.786971  0.537633  0.606021  2.561966  0.476
Cu  Cu1  1  0.24999989  0.50000230  0.00000064  1  0.646705  -0.625782  2.097984  -0.463  0.593281  -0.742879  2.519054  -0.593  0.678122  -0.839464  2.460488  -0.692  0.78686  0.537531  -0.605994  2.561871  -0.477
H  H2  1  0.58323897  0.03573804  0.72411616  1  0.092345  -0.000595  0.97401  -0.001  0.101271  -0.000355  1.038297  0.0  0.102656  -0.000282  1.037764  0.0  0.113191  0.099992  -0.000347  1.03888  0.0
H  H3  1  0.85912266  0.96426192  0.27588231  1  0.092315  -0.000598  0.974049  -0.001  0.101258  -0.000355  1.038326  0.0  0.102642  -0.000282  1.037795  0.0  0.113175  0.099974  -0.000347  1.03892  0.0
H  H4  1  0.91676344  0.31161632  0.27587962  1  0.092361  -0.000596  0.973905  -0.001  0.101263  -0.000356  1.038217  0.0  0.102647  -0.000282  1.037686  0.0  0.113201  0.099981  -0.000348  1.03881  0.0
H  H5  1  0.64087975  0.68837890  0.72411684  1  0.09234  -0.000597  0.973995  -0.001  0.101272  -0.000355  1.038275  0.0  0.102659  -0.000282  1.03774  0.0  0.113187  0.099994  -0.000348  1.038857  0.0
H  H6  1  0.41675336  0.96425290  0.27587628  1  0.09242  0.000596  0.974109  0.001  0.101356  0.000356  1.038348  0.0  0.102743  0.000281  1.037812  0.0  0.113212  0.100079  0.000347  1.038931  0.0
H  H7  1  0.14087339  0.03574923  0.72412459  1  0.092465  0.000598  0.974081  0.001  0.10138  0.000355  1.038344  0.0  0.102765  0.000281  1.037811  0.0  0.113228  0.100096  0.000347  1.038939  0.0
H  H8  1  0.08324573  0.68837623  0.72412439  1  0.092423  0.000592  0.974087  0.001  0.101362  0.000355  1.038316  0.0  0.102747  0.000282  1.037784  0.0  0.113214  0.100079  0.000347  1.038911  0.0
H  H9  1  0.35912460  0.31162598  0.27587698  1  0.092444  0.000597  0.974117  0.001  0.101371  0.000356  1.038352  0.0  0.102757  0.000282  1.037817  0.0  0.113224  0.100094  0.000347  1.038936  0.0
H  H10  1  0.76544903  0.76842382  0.53089674  1  0.120281  2e-06  0.98413  0.0  0.12798  -1e-06  1.047051  0.0  0.129846  -1e-06  1.048722  0.0  0.10219  0.126271  -1e-06  1.046458  0.0
H  H11  1  0.23455677  0.23157645  0.46910439  1  0.120335  2e-06  0.984085  0.0  0.128028  -0.0  1.047012  0.0  0.129893  -0.0  1.048683  0.0  0.102196  0.126317  -1e-06  1.046421  0.0
H  H12  1  0.73455410  0.23752577  0.46911094  1  0.120308  -1e-06  0.98378  0.0  0.128013  -0.0  1.046699  0.0  0.129879  0.0  1.048369  0.0  0.102206  0.126305  -0.0  1.046108  0.0
H  H13  1  0.26543932  0.76247295  0.53088847  1  0.120331  -1e-06  0.983922  0.0  0.128036  -0.0  1.046825  0.0  0.129902  -0.0  1.048496  0.0  0.102202  0.126326  -0.0  1.046234  0.0
C  C14  1  0.73029593  0.06992598  0.74483825  1  0.028292  -0.00275  3.757148  -0.002  -0.004869  -0.000274  4.021217  0.0  0.003389  -0.000416  4.039654  0.0  0.000726  -0.009179  -0.000234  4.008137  0.0
C  C15  1  0.98545746  0.93007225  0.25516074  1  0.028388  -0.002754  3.757101  -0.002  -0.004782  -0.000277  4.021137  0.0  0.003475  -0.000418  4.039576  0.0  0.000778  -0.009091  -0.000234  4.008057  0.0
C  C16  1  0.76970517  0.32508584  0.25516868  1  0.028307  -0.002765  3.757172  -0.002  -0.004817  -0.000275  4.021218  0.0  0.003436  -0.000419  4.03966  0.0  0.000713  -0.009125  -0.000233  4.008133  0.0
C  C17  1  0.51454035  0.67491115  0.74483584  1  0.028279  -0.002736  3.757028  -0.002  -0.004892  -0.000274  4.021082  0.0  0.003364  -0.000416  4.039519  0.0  0.000704  -0.009199  -0.000234  4.007998  0.0
C  C18  1  0.26971894  0.93008830  0.25517559  1  0.028196  0.002763  3.757035  0.002  -0.004947  0.000276  4.021066  0.0  0.003305  0.000418  4.03951  0.0  0.000648  -0.009256  0.000236  4.007985  0.0
C  C19  1  0.01453874  0.06991245  0.74482283  1  0.028163  0.002758  3.757178  0.002  -0.004957  0.00028  4.021205  0.0  0.003296  0.000421  4.03965  0.0  0.000629  -0.009265  0.000236  4.008125  0.0
C  C20  1  0.23027986  0.67491438  0.74482228  1  0.028142  0.002786  3.75701  0.002  -0.004999  0.000279  4.02105  0.0  0.003255  0.00042  4.039489  0.0  0.000611  -0.009308  0.000235  4.00797  0.0
C  C21  1  0.48546349  0.32508768  0.25518526  1  0.028166  0.002741  3.756923  0.002  -0.004953  0.000275  4.020956  0.0  0.003296  0.000419  4.039406  0.0  0.000618  -0.009262  0.000235  4.007876  0.0
C  C22  1  0.82550573  0.93674809  0.65099780  1  -0.217309  -1.3e-05  3.774177  0.0  -0.225575  1e-06  4.022046  0.0  -0.235206  1e-06  4.043007  0.0  -0.129221  -0.219264  2e-06  4.007851  0.0
C  C23  1  0.17450547  0.06325060  0.34899754  1  -0.217438  -4e-06  3.774101  0.0  -0.225705  3e-06  4.021994  0.0  -0.235336  1e-06  4.042955  0.0  -0.129275  -0.219392  1e-06  4.0078  0.0
C  C24  1  0.67449494  0.28574643  0.34898946  1  -0.217338  1.3e-05  3.774173  0.0  -0.225616  2e-06  4.02208  0.0  -0.235245  1e-06  4.043038  0.0  -0.129246  -0.219307  1e-06  4.007887  0.0
C  C25  1  0.32549956  0.71426004  0.65101180  1  -0.217349  -1.7e-05  3.774028  0.0  -0.225611  -1e-06  4.021937  0.0  -0.235241  -1e-06  4.042897  0.0  -0.12922  -0.219299  1e-06  4.007741  0.0
N  N26  1  0.85377333  0.26970580  0.88167494  1  -0.233754  0.065043  3.352307  0.084  -0.19593  0.048191  3.678035  0.065  -0.222892  0.041567  3.702709  0.059  -0.297094  -0.17869  0.045115  3.66295  0.059
N  N27  1  0.97209983  0.73029232  0.11832066  1  -0.233798  0.065037  3.352268  0.084  -0.195961  0.048187  3.677988  0.065  -0.222924  0.041568  3.702662  0.059  -0.29713  -0.178723  0.045114  3.662898  0.059
N  N28  1  0.64622173  0.38802640  0.11831831  1  -0.23378  0.065028  3.35208  0.084  -0.195951  0.048192  3.677802  0.065  -0.222915  0.041572  3.702474  0.059  -0.297094  -0.178713  0.045119  3.662714  0.059
N  N29  1  0.52789808  0.61197065  0.88168159  1  -0.233763  0.065028  3.352158  0.084  -0.19592  0.048193  3.677869  0.065  -0.222886  0.041569  3.702547  0.059  -0.29709  -0.178681  0.045117  3.662786  0.059
N  N30  1  0.14620378  0.73029289  0.11832031  1  -0.233812  -0.065078  3.351808  -0.084  -0.195956  -0.048197  3.677577  -0.065  -0.222926  -0.041572  3.702233  -0.059  -0.29708  -0.178723  -0.045124  3.66252  -0.059
N  N31  1  0.02787877  0.26970639  0.88167787  1  -0.233855  -0.065045  3.351779  -0.084  -0.196009  -0.048193  3.677561  -0.065  -0.22298  -0.041569  3.702217  -0.059  -0.297093  -0.178777  -0.045123  3.662498  -0.059
N  N32  1  0.35379393  0.61197231  0.88168049  1  -0.233767  -0.065058  3.351686  -0.084  -0.195907  -0.048197  3.677445  -0.065  -0.222876  -0.041573  3.702101  -0.059  -0.297072  -0.178678  -0.045125  3.662385  -0.059
N  N33  1  0.47211855  0.38802654  0.11832074  1  -0.233815  -0.065047  3.351541  -0.084  -0.195971  -0.048198  3.677327  -0.065  -0.222942  -0.041575  3.701984  -0.059  -0.297069  -0.178739  -0.045126  3.66227  -0.059
