# generated using pymatgen
data_CdNiH16(C2N)6
_symmetry_space_group_name_H-M   'P 1'
_cell_length_a   7.00497849
_cell_length_b   7.74873739
_cell_length_c   10.85732449
_cell_angle_alpha   89.99987436
_cell_angle_beta   104.74097690
_cell_angle_gamma   90.00012334
_symmetry_Int_Tables_number   1
_chemical_formula_structural   CdNiH16(C2N)6
_chemical_formula_sum   'Cd1 Ni1 H16 C12 N6'
_cell_volume   569.93545256
_cell_formula_units_Z   1
loop_
 _symmetry_equiv_pos_site_id
 _symmetry_equiv_pos_as_xyz
  1  'x, y, z'
loop_
 _atom_site_type_symbol
 _atom_site_label
 _atom_site_symmetry_multiplicity
 _atom_site_fract_x
 _atom_site_fract_y
 _atom_site_fract_z
 _atom_site_occupancy
 _atom_site_pbe_bader_charge
 _atom_site_pbe_bader_spin_density
 _atom_site_pbe_cm5_charge
 _atom_site_pbe_ddec_charge
 _atom_site_pbe_ddec_spin_density
 _atom_site_pbe_ddec_sum_bond_order
 _atom_site_pbe_magmom
Cd  Cd0  1  0.99999934  0.00000097  0.00000168  1  1.279162  0  0.817303  0.888451  0  2.34588  0
Ni  Ni1  1  0.49999717  0.50000195  0.00000094  1  0.622862  0  0.40279  0.12535  0  3.857387  0
H  H2  1  0.81762453  0.89465638  0.74269545  1  0.410127  0  0.301601  0.285866  0  0.9319  0
H  H3  1  0.54597794  0.88681339  0.84223100  1  0.084784  0  0.101957  0.079928  0  0.99992  0
H  H4  1  0.45172325  0.88582899  0.60190098  1  0.010767  0  0.088211  0.080106  0  0.992809  0
H  H5  1  0.19422033  0.88694228  0.72731181  1  0.068646  0  0.099593  0.10676  0  0.987167  0
H  H6  1  0.18237829  0.89465650  0.25730589  1  0.41005  0  0.301578  0.28583  0  0.931917  0
H  H7  1  0.45402340  0.88681435  0.15776918  1  0.084777  0  0.101974  0.079947  0  0.999905  0
H  H8  1  0.54827957  0.88582811  0.39809945  1  0.010961  0  0.088209  0.080137  0  0.992786  0
H  H9  1  0.80578105  0.88694228  0.27268653  1  0.068642  0  0.099602  0.106745  0  0.987157  0
H  H10  1  0.18237755  0.10534340  0.25730638  1  0.410039  0  0.301574  0.285829  0  0.931917  0
H  H11  1  0.45402269  0.11318767  0.15776875  1  0.08476  0  0.101966  0.079944  0  0.999892  0
H  H12  1  0.54827886  0.11417207  0.39809902  1  0.010962  0  0.088209  0.080137  0  0.99279  0
H  H13  1  0.80578034  0.11305749  0.27268610  1  0.068617  0  0.099599  0.106733  0  0.987181  0
H  H14  1  0.81762378  0.10534327  0.74269595  1  0.410116  0  0.3016  0.285829  0  0.931949  0
H  H15  1  0.54597723  0.11318671  0.84223056  1  0.084429  0  0.101957  0.079932  0  0.999889  0
H  H16  1  0.45172401  0.11417166  0.60190080  1  0.010749  0  0.088213  0.080118  0  0.992812  0
H  H17  1  0.19422110  0.11305749  0.72731163  1  0.068646  0  0.099597  0.10676  0  0.987156  0
C  C18  1  0.69134552  0.66782684  0.03587737  1  0.818233  0  0.019855  0.047928  0  3.841103  0
C  C19  1  0.30864506  0.66783149  0.96412223  1  0.818438  0  0.019929  0.047981  0  3.841241  0
C  C20  1  0.30863434  0.33216132  0.96412434  1  0.818597  0  0.020006  0.047987  0  3.841681  0
C  C21  1  0.69135111  0.33216570  0.03587859  1  0.818361  0  0.02002  0.04803  0  3.841365  0
C  C22  1  0.57238613  0.99999968  0.78813016  1  0.239804  0  -0.077826  0.019061  0  3.921779  0
C  C23  1  0.42787577  0.00000070  0.65656587  1  -0.009663  0  -0.162851  -0.169444  0  3.933521  0
C  C24  1  0.21434237  0.00000047  0.67019634  1  0.073392  0  -0.151582  -0.108259  0  4.038756  0
C  C25  1  0.06363022  0.00000051  0.54995632  1  -0.422325  0  -0.083903  -0.126037  0  4.180441  0
C  C26  1  0.42761305  0.00000009  0.21186841  1  0.239455  0  -0.077803  0.019102  0  3.921736  0
C  C27  1  0.57212839  0.00000003  0.34343342  1  -0.009632  0  -0.162917  -0.169677  0  3.933562  0
C  C28  1  0.78566033  0.00000026  0.32980178  1  0.07335  0  -0.151546  -0.108023  0  4.038611  0
C  C29  1  0.93637250  0.00000022  0.45004089  1  -0.038709  0  -0.083803  -0.126155  0  4.180465  0
N  N30  1  0.81062132  0.77755189  0.05791488  1  -1.352373  0  -0.369728  -0.377382  0  3.232551  0
N  N31  1  0.18938128  0.77754864  0.94208661  1  -1.352542  0  -0.369811  -0.377445  0  3.232762  0
N  N32  1  0.18938810  0.22246078  0.94209006  1  -1.352683  0  -0.369835  -0.37737  0  3.233465  0
N  N33  1  0.81060901  0.22245372  0.05791228  1  -1.352494  0  -0.369897  -0.377468  0  3.232999  0
N  N34  1  0.78374201  0.00000213  0.78983854  1  -1.104234  0  -0.616935  -0.568639  0  3.331066  0
N  N35  1  0.21626061  0.99999989  0.21016325  1  -1.104071  0  -0.616904  -0.56859  0  3.331014  0
