# generated using pymatgen
data_AlH2C8Br2O5F
_symmetry_space_group_name_H-M   'P 1'
_cell_length_a   6.61587943
_cell_length_b   8.83271703
_cell_length_c   11.12212417
_cell_angle_alpha   85.55472980
_cell_angle_beta   72.74228246
_cell_angle_gamma   76.06670397
_symmetry_Int_Tables_number   1
_chemical_formula_structural   AlH2C8Br2O5F
_chemical_formula_sum   'Al2 H4 C16 Br4 O10 F2'
_cell_volume   602.39930695
_cell_formula_units_Z   2
loop_
 _symmetry_equiv_pos_site_id
 _symmetry_equiv_pos_as_xyz
  1  'x, y, z'
loop_
 _atom_site_type_symbol
 _atom_site_label
 _atom_site_symmetry_multiplicity
 _atom_site_fract_x
 _atom_site_fract_y
 _atom_site_fract_z
 _atom_site_occupancy
 _atom_site_pbe_bader_charge
 _atom_site_pbe_bader_spin_density
 _atom_site_pbe_cm5_charge
 _atom_site_pbe_ddec_charge
 _atom_site_pbe_ddec_spin_density
 _atom_site_pbe_ddec_sum_bond_order
 _atom_site_pbe_magmom
Al  Al0  1  0.49804325  0.50230253  0.50360131  1  2.503631  0  0.39226  1.640957  0  2.564893  0
Al  Al1  1  0.99739722  0.50076609  0.50493473  1  2.502349  0  0.393456  1.643663  0  2.572187  0
H  H2  1  0.79126575  0.59558334  0.35611912  1  0.64097  0  0.334825  0.415781  0  0.891368  0
H  H3  1  0.27100186  0.31858233  0.57732939  1  0.635962  0  0.345942  0.426307  0  0.867594  0
H  H4  1  0.22774278  0.26550564  0.23129447  1  0.07743  0  0.111209  0.135628  0  1.006758  0
H  H5  1  0.40460486  0.31388598  0.76517223  1  0.098535  0  0.111369  0.129181  0  1.03254  0
C  C6  1  0.37586259  0.48963955  0.27675080  1  1.599911  0  0.265935  0.656058  0  4.104307  0
C  C7  1  0.14616709  0.77791073  0.50895805  1  1.683489  0  0.26073  0.593877  0  4.17556  0
C  C8  1  0.61851942  0.52330109  0.72872533  1  1.612049  0  0.270505  0.65419  0  4.098839  0
C  C9  1  0.84750316  0.22025391  0.50414023  1  1.573073  0  0.2613  0.598348  0  4.166214  0
C  C10  1  0.89807088  0.04664034  0.50816922  1  0.590348  0  0.095821  0.042065  0  3.997763  0
C  C11  1  0.09360647  0.95152425  0.50685283  1  0.582391  0  0.097573  0.051122  0  3.977181  0
C  C12  1  0.44123966  0.49740213  0.13557690  1  0.026656  0  -0.010071  -0.110021  0  3.915475  0
C  C13  1  0.37898685  0.39422972  0.06778483  1  0.052479  0  0.001993  0.079276  0  3.957335  0
C  C14  1  0.55129039  0.60855778  0.07201854  1  -0.035717  0  -0.015186  0.037252  0  3.945423  0
C  C15  1  0.26711731  0.27851825  0.12943261  1  0.041888  0  -0.091981  -0.170057  0  3.929982  0
C  C16  1  0.20393419  0.18253331  0.06234991  1  -0.041891  0  -0.019682  0.068802  0  3.979877  0
C  C17  1  0.54918473  0.52063114  0.87025406  1  0.076405  0  -0.00615  -0.105639  0  3.906625  0
C  C18  1  0.60442089  0.62097216  0.93857740  1  -0.052186  0  -0.014939  0.03997  0  3.959894  0
C  C19  1  0.43231791  0.40682423  0.93340102  1  -0.010328  0  0.004497  0.082461  0  3.953311  0
C  C20  1  0.36812036  0.30482644  0.86691743  1  0.078532  0  -0.092188  -0.167987  0  3.932531  0
C  C21  1  0.25399180  0.19657352  0.92926730  1  -0.104322  0  -0.020122  0.066651  0  3.982161  0
Br  Br22  1  0.74078885  0.78042715  0.85442838  1  -0.000756  0  0.05783  -0.009672  0  1.582571  0
Br  Br23  1  0.62176504  0.75233558  0.16283207  1  -0.020731  0  0.065854  -0.012632  0  1.600008  0
Br  Br24  1  0.04829137  0.03431622  0.15129524  1  -0.040501  0  0.030827  -0.049287  0  1.498118  0
Br  Br25  1  0.16667391  0.07002699  0.83297411  1  -0.026012  0  0.033737  -0.042843  0  1.494678  0
O  O26  1  0.52609477  0.46019811  0.33007504  1  -1.249049  0  -0.234638  -0.589295  0  2.356936  0
O  O27  1  0.98866600  0.71227519  0.52957142  1  -1.240326  0  -0.222672  -0.559666  0  2.408848  0
O  O28  1  0.82161099  0.48940560  0.67493567  1  -1.2445  0  -0.227004  -0.578642  0  2.359796  0
O  O29  1  0.64771607  0.28743527  0.52523889  1  -1.232934  0  -0.229367  -0.572493  0  2.364358  0
O  O30  1  0.47008782  0.54968062  0.67408316  1  -1.260824  0  -0.225216  -0.563069  0  2.326902  0
O  O31  1  0.00714303  0.28464577  0.48190701  1  -1.236455  0  -0.231461  -0.577362  0  2.39157  0
O  O32  1  0.17238000  0.51506973  0.33119164  1  -1.249572  0  -0.231752  -0.589527  0  2.342572  0
O  O33  1  0.34585546  0.71231734  0.48747407  1  -1.235198  0  -0.223986  -0.56293  0  2.395104  0
O  O34  1  0.75812434  0.56304787  0.44398736  1  -1.449066  0  -0.448968  -0.983649  0  2.213749  0
O  O35  1  0.24439147  0.42982601  0.55895365  1  -1.438762  0  -0.448665  -0.984451  0  2.184432  0
F  F36  1  0.72770739  0.98551023  0.51519491  1  -0.600893  0  -0.069095  -0.061751  0  1.457019  0
F  F37  1  0.26437683  0.01303556  0.49911545  1  -0.606074  0  -0.072519  -0.070616  0  1.459962  0
