# generated using pymatgen
data_CdH4C6(ClO3)2
_symmetry_space_group_name_H-M   'P 1'
_cell_length_a   4.78302213
_cell_length_b   7.39030563
_cell_length_c   15.06264652
_cell_angle_alpha   85.03913445
_cell_angle_beta   82.91691618
_cell_angle_gamma   68.65703650
_symmetry_Int_Tables_number   1
_chemical_formula_structural   CdH4C6(ClO3)2
_chemical_formula_sum   'Cd2 H8 C12 Cl4 O12'
_cell_volume   491.63597493
_cell_formula_units_Z   2
loop_
 _symmetry_equiv_pos_site_id
 _symmetry_equiv_pos_as_xyz
  1  'x, y, z'
loop_
 _atom_site_type_symbol
 _atom_site_label
 _atom_site_symmetry_multiplicity
 _atom_site_fract_x
 _atom_site_fract_y
 _atom_site_fract_z
 _atom_site_occupancy
 _atom_site_hle17_bader_spin_density
 _atom_site_hle17_ddec_charge
 _atom_site_hle17_ddec_spin_density
 _atom_site_hle17_ddec_sum_bond_order
 _atom_site_hle17_magmom
 _atom_site_hse06_10hf_bader_spin_density
 _atom_site_hse06_10hf_ddec_charge
 _atom_site_hse06_10hf_ddec_spin_density
 _atom_site_hse06_10hf_ddec_sum_bond_order
 _atom_site_hse06_10hf_magmom
 _atom_site_hse06_bader_spin_density
 _atom_site_hse06_ddec_charge
 _atom_site_hse06_ddec_spin_density
 _atom_site_hse06_ddec_sum_bond_order
 _atom_site_hse06_magmom
 _atom_site_pbe_bader_spin_density
 _atom_site_pbe_cm5_charge
 _atom_site_pbe_ddec_charge
 _atom_site_pbe_ddec_spin_density
 _atom_site_pbe_ddec_sum_bond_order
 _atom_site_pbe_magmom
Cd  Cd0  1  0.13907520  0.76521844  0.24362170  1  0  1.256167  0  1.542557  0  0  1.087498  0  1.971105  0  0  1.145167  0  1.912676  0  0  0.773483  1.046159  0  2.011407  0
Cd  Cd1  1  0.86092192  0.23478504  0.75638330  1  0  1.25616  0  1.542386  0  0  1.087473  0  1.970916  0  0  1.145145  0  1.912492  0  0  0.77351  1.046113  0  2.01119  0
H  H2  1  0.67708785  0.91033203  0.13462906  1  0  0.422483  0  0.883889  0  0  0.384524  0  0.960527  0  0  0.396278  0  0.943576  0  0  0.285109  0.37619  0  0.972502  0
H  H3  1  0.56273567  0.06478553  0.65248362  1  0  0.422999  0  0.886181  0  0  0.383251  0  0.965285  0  0  0.395124  0  0.947994  0  0  0.285563  0.374835  0  0.977515  0
H  H4  1  0.32294155  0.08964410  0.86536576  1  0  0.422531  0  0.883826  0  0  0.384605  0  0.960413  0  0  0.396362  0  0.943459  0  0  0.28515  0.376266  0  0.972395  0
H  H5  1  0.43724509  0.93523194  0.34750620  1  0  0.423004  0  0.886198  0  0  0.383286  0  0.965281  0  0  0.395156  0  0.947992  0  0  0.285605  0.374872  0  0.977508  0
H  H6  1  0.57461749  0.05242946  0.21174086  1  0  0.43274  0  0.8382  0  0  0.409805  0  0.898644  0  0  0.419422  0  0.884721  0  0  0.301111  0.402927  0  0.90772  0
H  H7  1  0.88156446  0.89310984  0.66124177  1  0  0.432839  0  0.821502  0  0  0.408649  0  0.887873  0  0  0.417172  0  0.875784  0  0  0.310734  0.402554  0  0.894872  0
H  H8  1  0.42543345  0.94755801  0.78825171  1  0  0.432748  0  0.838036  0  0  0.409694  0  0.898754  0  0  0.419306  0  0.884838  0  0  0.301017  0.402815  0  0.907758  0
H  H9  1  0.11844309  0.10690177  0.33874212  1  0  0.432876  0  0.821369  0  0  0.408738  0  0.887654  0  0  0.417259  0  0.875636  0  0  0.31079  0.40265  0  0.894646  0
C  C10  1  0.49422754  0.64099198  0.06158399  1  0  0.286949  0  3.838174  0  0  0.256062  0  4.115401  0  0  0.277428  0  4.123633  0  0  0.104025  0.241896  0  4.109243  0
C  C11  1  0.12398413  0.34503924  0.56617032  1  0  0.287711  0  3.858423  0  0  0.256386  0  4.138656  0  0  0.277801  0  4.146856  0  0  0.102664  0.242096  0  4.132524  0
C  C12  1  0.50580866  0.35900269  0.93841280  1  0  0.286818  0  3.838201  0  0  0.2559  0  4.115531  0  0  0.277261  0  4.123771  0  0  0.103929  0.241735  0  4.109384  0
C  C13  1  0.87594601  0.65496179  0.43384532  1  0  0.287438  0  3.857854  0  0  0.256199  0  4.138038  0  0  0.277617  0  4.14624  0  0  0.102492  0.241914  0  4.131893  0
C  C14  1  0.67223319  0.50215312  0.91460888  1  0  0.302854  0  3.830079  0  0  0.280148  0  4.101129  0  0  0.303702  0  4.105776  0  0  0.114503  0.264462  0  4.097312  0
C  C15  1  0.19908362  0.50572336  0.41994267  1  0  0.296206  0  3.848166  0  0  0.273578  0  4.119928  0  0  0.296348  0  4.125309  0  0  0.110388  0.258269  0  4.115811  0
C  C16  1  0.32777022  0.49783883  0.08539425  1  0  0.302638  0  3.829979  0  0  0.280024  0  4.100895  0  0  0.303561  0  4.105563  0  0  0.114472  0.264346  0  4.097064  0
C  C17  1  0.80088583  0.49426457  0.58006421  1  0  0.296253  0  3.848949  0  0  0.273772  0  4.120472  0  0  0.296539  0  4.125853  0  0  0.110437  0.258464  0  4.116358  0
C  C18  1  0.65102376  0.63925505  0.97714671  1  0  -0.150612  0  3.819187  0  0  -0.155641  0  4.115748  0  0  -0.172539  0  4.140286  0  0  -0.04374  -0.144994  0  4.099612  0
C  C19  1  0.29947362  0.35488351  0.48593309  1  0  -0.15897  0  3.798541  0  0  -0.163522  0  4.097126  0  0  -0.180817  0  4.121828  0  0  -0.049433  -0.15234  0  4.080565  0
C  C20  1  0.34898496  0.36074253  0.02285745  1  0  -0.150409  0  3.818624  0  0  -0.15545  0  4.115151  0  0  -0.172337  0  4.139691  0  0  -0.043693  -0.144809  0  4.099021  0
C  C21  1  0.70048346  0.64511177  0.51407461  1  0  -0.158689  0  3.79879  0  0  -0.163298  0  4.097245  0  0  -0.180587  0  4.121943  0  0  -0.049264  -0.152116  0  4.08068  0
Cl  Cl22  1  0.84024853  0.79815606  0.94943462  1  0  -0.018695  0  1.491884  0  0  -0.004605  0  1.750059  0  0  -0.006533  0  1.747335  0  0  0.012141  -0.003114  0  1.752211  0
Cl  Cl23  1  0.66113198  0.18470805  0.46875384  1  0  -0.057931  0  1.511837  0  0  -0.042333  0  1.778099  0  0  -0.044  0  1.774876  0  0  0.002791  -0.040994  0  1.780591  0
Cl  Cl24  1  0.15975445  0.20184006  0.05057173  1  0  -0.018734  0  1.491699  0  0  -0.004634  0  1.74985  0  0  -0.006561  0  1.747126  0  0  0.012136  -0.00314  0  1.752008  0
Cl  Cl25  1  0.33884443  0.81529604  0.53124510  1  0  -0.057983  0  1.51174  0  0  -0.04241  0  1.778047  0  0  -0.044077  0  1.77482  0  0  0.002747  -0.041068  0  1.780535  0
O  O26  1  0.48108691  0.75511212  0.12238610  1  0  -0.565416  0  2.159104  0  0  -0.491308  0  2.403765  0  0  -0.521421  0  2.39935  0  0  -0.297826  -0.47027  0  2.406045  0
O  O27  1  0.21159224  0.22001036  0.63011547  1  0  -0.559655  0  2.16315  0  0  -0.489975  0  2.409114  0  0  -0.518086  0  2.403367  0  0  -0.293344  -0.470286  0  2.412389  0
O  O28  1  0.51891655  0.24488681  0.87762150  1  0  -0.565397  0  2.159533  0  0  -0.491247  0  2.40413  0  0  -0.521372  0  2.399726  0  0  -0.297768  -0.470188  0  2.406389  0
O  O29  1  0.78838745  0.78000836  0.36987834  1  0  -0.559791  0  2.16238  0  0  -0.49005  0  2.408238  0  0  -0.518206  0  2.402552  0  0  -0.293382  -0.470365  0  2.411526  0
O  O30  1  0.82488554  0.49042428  0.83922475  1  0  -0.498285  0  2.027284  0  0  -0.441527  0  2.257811  0  0  -0.465716  0  2.250528  0  0  -0.293153  -0.424441  0  2.262084  0
O  O31  1  0.36219019  0.52543049  0.35032341  1  0  -0.482745  0  2.037446  0  0  -0.427373  0  2.267515  0  0  -0.450427  0  2.260697  0  0  -0.282946  -0.411408  0  2.271774  0
O  O32  1  0.17511015  0.50957327  0.16078377  1  0  -0.498255  0  2.026986  0  0  -0.441533  0  2.257464  0  0  -0.465718  0  2.25019  0  0  -0.293212  -0.424456  0  2.261751  0
O  O33  1  0.63780442  0.47460196  0.64967958  1  0  -0.482719  0  2.038027  0  0  -0.427366  0  2.267981  0  0  -0.450416  0  2.261168  0  0  -0.282907  -0.411398  0  2.272225  0
O  O34  1  0.75305353  0.98676196  0.17064942  1  0  -0.820705  0  1.867263  0  0  -0.758927  0  2.064842  0  0  -0.782742  0  2.03214  0  0  -0.580842  -0.742038  0  2.086784  0
O  O35  1  0.71905873  0.99355351  0.69420156  1  0  -0.8279  0  1.870751  0  0  -0.76475  0  2.065041  0  0  -0.786198  0  2.031107  0  0  -0.561219  -0.749565  0  2.087135  0
O  O36  1  0.24697830  0.01322130  0.82934647  1  0  -0.820683  0  1.867008  0  0  -0.758832  0  2.064796  0  0  -0.782643  0  2.032091  0  0  -0.580802  -0.741954  0  2.086676  0
O  O37  1  0.28097238  0.00644708  0.30579390  1  0  -0.82784  0  1.870801  0  0  -0.764813  0  2.064946  0  0  -0.786253  0  2.031079  0  0  -0.561266  -0.749618  0  2.08704  0
