# generated using pymatgen
data_Al2H3C12S2Cl(O5F)2
_symmetry_space_group_name_H-M   'P 1'
_cell_length_a   6.65583581
_cell_length_b   8.81200217
_cell_length_c   12.64542874
_cell_angle_alpha   71.06755677
_cell_angle_beta   75.93858861
_cell_angle_gamma   75.61023396
_symmetry_Int_Tables_number   1
_chemical_formula_structural   Al2H3C12S2Cl(O5F)2
_chemical_formula_sum   'Al2 H3 C12 S2 Cl1 O10 F2'
_cell_volume   668.78745816
_cell_formula_units_Z   1
loop_
 _symmetry_equiv_pos_site_id
 _symmetry_equiv_pos_as_xyz
  1  'x, y, z'
loop_
 _atom_site_type_symbol
 _atom_site_label
 _atom_site_symmetry_multiplicity
 _atom_site_fract_x
 _atom_site_fract_y
 _atom_site_fract_z
 _atom_site_occupancy
 _atom_site_pbe_bader_charge
 _atom_site_pbe_bader_spin_density
 _atom_site_pbe_cm5_charge
 _atom_site_pbe_ddec_charge
 _atom_site_pbe_ddec_spin_density
 _atom_site_pbe_ddec_sum_bond_order
 _atom_site_pbe_magmom
Al  Al0  1  0.50322230  0.50199592  0.49414806  1  2.502962  0  0.398925  1.63854  0  2.575403  0
Al  Al1  1  0.00205294  0.49800182  0.49897082  1  2.503368  0  0.39752  1.64357  0  2.568837  0
H  H2  1  0.72599722  0.70493724  0.41971134  1  0.627741  0  0.353312  0.436488  0  0.848128  0
H  H3  1  0.24082350  0.36650981  0.63481237  1  0.654516  0  0.344784  0.426453  0  0.868958  0
H  H4  1  0.68008979  0.61062945  0.12769065  1  0.14163  0  0.121658  0.146054  0  0.977586  0
C  C5  1  0.32914488  0.51710193  0.29962946  1  1.583218  0  0.265546  0.651102  0  4.135651  0
C  C6  1  0.16766187  0.78523719  0.48856023  1  1.639538  0  0.262841  0.607323  0  4.161361  0
C  C7  1  0.67002332  0.47560575  0.69737263  1  1.591576  0  0.255434  0.660592  0  4.134285  0
C  C8  1  0.83511149  0.22007087  0.50128200  1  1.663376  0  0.265505  0.600515  0  4.165041  0
C  C9  1  0.90250326  0.04866724  0.49366810  1  0.589529  0  0.101833  0.050913  0  3.967619  0
C  C10  1  0.09896027  0.95637789  0.49685503  1  0.556968  0  0.101911  0.04868  0  3.974262  0
C  C11  1  0.42638066  0.42953152  0.89431478  1  0.103547  0  0.00765  0.10112  0  4.08896  0
C  C12  1  0.56827833  0.55997813  0.10527459  1  0.019217  0  -0.085841  -0.131135  0  3.957277  0
C  C13  1  0.59967095  0.48138123  0.81556080  1  -0.097701  0  -0.025706  -0.190584  0  3.939521  0
C  C14  1  0.39315826  0.51032374  0.18138077  1  -0.132804  0  -0.016475  -0.115993  0  3.962937  0
C  C15  1  0.57811638  0.53375613  0.99951833  1  -0.176412  0  -0.021321  0.004314  0  4.073618  0
C  C16  1  0.41231060  0.46107739  0.99885364  1  -0.104434  0  -0.030855  -0.090853  0  4.095693  0
S  S17  1  0.74682705  0.56573047  0.87074332  1  0.292483  0  0.093562  0.144054  0  2.825925  0
S  S18  1  0.24043069  0.43002729  0.12646883  1  0.277865  0  0.093598  0.142656  0  2.767355  0
Cl  Cl19  1  0.25303342  0.33061618  0.87513576  1  -0.170284  0  0.019582  -0.034005  0  1.591518  0
O  O20  1  0.46008361  0.55324780  0.34203623  1  -1.259441  0  -0.234717  -0.582359  0  2.318931  0
O  O21  1  0.03391860  0.72156274  0.46895404  1  -1.244205  0  -0.232256  -0.587738  0  2.381523  0
O  O22  1  0.85682749  0.50148306  0.65139595  1  -1.255245  0  -0.24313  -0.597154  0  2.322086  0
O  O23  1  0.65232891  0.29025723  0.48078197  1  -1.232754  0  -0.220462  -0.545042  0  2.33089  0
O  O24  1  0.54098927  0.44638779  0.64993612  1  -1.257593  0  -0.240943  -0.604477  0  2.37658  0
O  O25  1  0.96451966  0.27962459  0.52782464  1  -1.244669  0  -0.228268  -0.569573  0  2.379873  0
O  O26  1  0.14673137  0.48704625  0.35013080  1  -1.249115  0  -0.233411  -0.57523  0  2.328843  0
O  O27  1  0.35593895  0.71977115  0.50192567  1  -1.232529  0  -0.231148  -0.569823  0  2.337153  0
O  O28  1  0.75053489  0.58640619  0.44274540  1  -1.425979  0  -0.447409  -0.985465  0  2.165078  0
O  O29  1  0.25370936  0.42086218  0.55403492  1  -1.453949  0  -0.446932  -0.983535  0  2.185541  0
F  F30  1  0.74731012  0.98715780  0.48024673  1  -0.608105  0  -0.07423  -0.074656  0  1.438209  0
F  F31  1  0.25388611  0.01840235  0.50952341  1  -0.602312  0  -0.070556  -0.064753  0  1.442941  0
