# generated using pymatgen
data_NiH18(CO)8
_symmetry_space_group_name_H-M   'P 1'
_cell_length_a   4.93574746
_cell_length_b   6.16075095
_cell_length_c   9.31597938
_cell_angle_alpha   81.63676666
_cell_angle_beta   80.91614847
_cell_angle_gamma   77.16573084
_symmetry_Int_Tables_number   1
_chemical_formula_structural   NiH18(CO)8
_chemical_formula_sum   'Ni1 H18 C8 O8'
_cell_volume   270.93990605
_cell_formula_units_Z   1
loop_
 _symmetry_equiv_pos_site_id
 _symmetry_equiv_pos_as_xyz
  1  'x, y, z'
loop_
 _atom_site_type_symbol
 _atom_site_label
 _atom_site_symmetry_multiplicity
 _atom_site_fract_x
 _atom_site_fract_y
 _atom_site_fract_z
 _atom_site_occupancy
 _atom_site_hle17_ddec_charge
 _atom_site_hle17_ddec_spin_density
 _atom_site_hle17_ddec_sum_bond_order
 _atom_site_hle17_magmom
 _atom_site_hse06_10hf_ddec_charge
 _atom_site_hse06_10hf_ddec_spin_density
 _atom_site_hse06_10hf_ddec_sum_bond_order
 _atom_site_hse06_10hf_magmom
 _atom_site_hse06_ddec_charge
 _atom_site_hse06_ddec_spin_density
 _atom_site_hse06_ddec_sum_bond_order
 _atom_site_hse06_magmom
 _atom_site_pbe_cm5_charge
 _atom_site_pbe_ddec_charge
 _atom_site_pbe_ddec_spin_density
 _atom_site_pbe_ddec_sum_bond_order
 _atom_site_pbe_magmom
Ni  Ni0  1  0.50000070  0.50000399  0.50000276  1  1.017497  1.76823  1.777215  1.546  1.033009  1.834224  2.153531  1.669  1.112714  1.880214  2.090449  1.745  0.601635  0.960879  1.79244  2.216023  1.603
H  H1  1  0.02147034  0.75584867  0.48352236  1  0.405431  -0.000981  0.879703  -0.001  0.382004  -9.7e-05  0.949015  0.0  0.392244  -0.000233  0.938235  0.0  0.299887  0.374438  2.7e-05  0.956649  0.0
H  H2  1  0.97852334  0.24416420  0.51647477  1  0.405477  -0.000981  0.879669  -0.001  0.38205  -9.7e-05  0.948978  0.0  0.392288  -0.000233  0.93819  0.0  0.299972  0.374485  2.8e-05  0.956614  0.0
H  H3  1  0.62817750  0.71213885  0.69628703  1  0.430397  -0.0004  0.867987  -0.001  0.400775  0.000132  0.930584  0.0  0.412205  -1.4e-05  0.914153  0.0  0.298422  0.392411  0.000274  0.942521  0.0
H  H4  1  0.37181399  0.28787584  0.30371871  1  0.430469  -0.000394  0.867895  -0.001  0.400812  0.000133  0.930538  0.0  0.412249  -1.4e-05  0.914099  0.0  0.298467  0.39245  0.000275  0.94247  0.0
H  H5  1  0.10816871  0.92012170  0.20085353  1  0.089498  -0.000354  0.936662  0.0  0.101827  -3.9e-05  0.993549  0.0  0.10382  -3.1e-05  0.993664  0.0  0.104409  0.100371  -3.4e-05  0.993715  0.0
H  H6  1  0.89184414  0.07987279  0.79914803  1  0.089456  -0.000361  0.936707  0.0  0.10173  -3.9e-05  0.993606  0.0  0.103731  -3.1e-05  0.993718  0.0  0.104367  0.100274  -3.4e-05  0.993778  0.0
H  H7  1  0.80154956  0.29709144  0.16522742  1  0.082318  -7.8e-05  0.941352  0.0  0.100246  -4.6e-05  1.002129  0.0  0.101028  -4.8e-05  1.002482  0.0  0.094014  0.099625  -3e-05  1.002013  0.0
H  H8  1  0.19844830  0.70289623  0.83476768  1  0.082442  -7.8e-05  0.941161  0.0  0.100212  -4.6e-05  1.002122  0.0  0.100999  -4.8e-05  1.002466  0.0  0.093994  0.099592  -3e-05  1.002008  0.0
H  H9  1  0.62164894  0.20156922  0.04574019  1  0.06366  -2.8e-05  0.952874  0.0  0.082404  2.7e-05  1.014273  0.0  0.083435  1.7e-05  1.014026  0.0  0.088195  0.081587  4.4e-05  1.014565  0.0
H  H10  1  0.37834923  0.79843166  0.95424167  1  0.063638  -3e-05  0.953072  0.0  0.082394  2.8e-05  1.014416  0.0  0.083421  1.7e-05  1.01417  0.0  0.088198  0.081571  4.4e-05  1.01471  0.0
H  H11  1  0.02468068  0.59939318  0.09609908  1  0.070366  0.000334  0.964372  0.0  0.087943  0.000322  1.028597  0.0  0.08895  0.000222  1.028894  0.0  0.092116  0.086969  0.000442  1.028869  0.0
H  H12  1  0.97531954  0.40060958  0.90389528  1  0.070463  0.00034  0.964309  0.0  0.088015  0.000322  1.028537  0.0  0.089022  0.000222  1.028834  0.0  0.092192  0.087045  0.000442  1.028804  0.0
H  H13  1  0.75668429  0.77484755  0.00345094  1  0.063938  -2.6e-05  0.950585  0.0  0.083693  1.4e-05  1.01048  0.0  0.084514  7e-06  1.010697  0.0  0.08825  0.08304  3.3e-05  1.010459  0.0
H  H14  1  0.24331791  0.22514676  0.99653983  1  0.064014  -1.7e-05  0.950493  0.0  0.083749  1.4e-05  1.010419  0.0  0.084569  7e-06  1.010635  0.0  0.088324  0.083096  3.3e-05  1.010401  0.0
H  H15  1  0.86962808  0.48930193  0.67714107  1  0.418207  -0.000265  0.872358  -0.001  0.39261  0.000273  0.940139  0.0  0.403889  8.5e-05  0.923787  0.0  0.298052  0.384214  0.000464  0.952216  0.0
H  H16  1  0.13036394  0.51071113  0.32286801  1  0.418168  -0.000268  0.872408  -0.001  0.392566  0.000273  0.940194  0.0  0.403851  8.4e-05  0.923835  0.0  0.298019  0.384165  0.000463  0.952281  0.0
H  H17  1  0.27237588  0.88413153  0.44407779  1  0.406563  -0.001042  0.906189  -0.002  0.371648  -0.000332  0.983688  0.0  0.384292  -0.000457  0.965659  -0.001  0.287288  0.362626  -0.00018  0.996474  0.0
H  H18  1  0.72760977  0.11586650  0.55593561  1  0.40647  -0.001037  0.906226  -0.002  0.371588  -0.000332  0.983758  0.0  0.384227  -0.000457  0.965738  -0.001  0.287298  0.362566  -0.00018  0.996543  0.0
C  C19  1  0.69877455  0.87425848  0.28520842  1  0.705311  -0.003513  3.737656  -0.003  0.649724  -0.000244  4.047379  0.0  0.685955  -0.000533  4.038174  0.0  0.234007  0.624373  -0.000126  4.052438  0.0
C  C20  1  0.30126393  0.12571399  0.71478017  1  0.705003  -0.003513  3.736972  -0.003  0.649572  -0.000247  4.046456  0.0  0.685796  -0.000537  4.037271  0.0  0.234124  0.624221  -0.000129  4.051506  0.0
C  C21  1  0.90822812  0.93805154  0.15723498  1  -0.135762  0.004134  3.650637  0.005  -0.137595  0.002277  3.894952  0.003  -0.144658  0.001511  3.9096  0.002  -0.095564  -0.132753  0.003121  3.885131  0.004
C  C22  1  0.09174218  0.06196196  0.84280186  1  -0.13585  0.004127  3.651164  0.005  -0.137532  0.00228  3.895077  0.003  -0.144614  0.001514  3.909733  0.002  -0.095567  -0.1327  0.003125  3.885268  0.004
C  C23  1  0.82639224  0.17782707  0.08496993  1  -0.110972  0.001068  3.668471  0.001  -0.15763  0.000681  3.928359  0.001  -0.157512  0.000428  3.941728  0.001  -0.168098  -0.15755  0.000952  3.919016  0.001
C  C24  1  0.17362762  0.82216218  0.91501864  1  -0.110949  0.001075  3.668732  0.001  -0.157497  0.00068  3.928442  0.001  -0.157368  0.000427  3.941813  0.001  -0.167978  -0.157409  0.000952  3.919093  0.001
C  C25  1  0.95635804  0.76995581  0.04385935  1  -0.109749  0.000455  3.652531  0.001  -0.155524  0.000447  3.911124  0.001  -0.15616  0.000268  3.924878  0.0  -0.162412  -0.154806  0.00061  3.901569  0.001
C  C26  1  0.04366418  0.23004665  0.95611580  1  -0.109932  0.000439  3.653103  0.001  -0.155717  0.000448  3.911705  0.001  -0.15634  0.000269  3.925452  0.0  -0.162583  -0.155001  0.000611  3.902162  0.001
O  O27  1  0.77761627  0.68641968  0.36465644  1  -0.677353  0.039038  2.090544  0.071  -0.63093  0.025281  2.351276  0.046  -0.667458  0.018388  2.340209  0.036  -0.314866  -0.60195  0.031701  2.35802  0.055
O  O28  1  0.22235890  0.31361001  0.63534388  1  -0.677291  0.039074  2.089826  0.071  -0.630906  0.025299  2.350461  0.046  -0.667415  0.018398  2.33938  0.036  -0.314918  -0.601921  0.031723  2.357202  0.055
O  O29  1  0.18526980  0.77893085  0.52330365  1  -0.786251  0.041803  1.949802  0.071  -0.757779  0.028567  2.173884  0.049  -0.786442  0.021493  2.144285  0.039  -0.575771  -0.73489  0.034681  2.195149  0.056
O  O30  1  0.81472155  0.22107724  0.47670923  1  -0.786258  0.041799  1.949726  0.071  -0.757807  0.028567  2.173872  0.049  -0.786467  0.021493  2.144271  0.039  -0.575877  -0.734919  0.03468  2.19514  0.056
O  O31  1  0.66514868  0.54999065  0.68326407  1  -0.80829  0.036164  1.931553  0.063  -0.784679  0.025841  2.145504  0.045  -0.812318  0.019354  2.111434  0.036  -0.575053  -0.761861  0.031635  2.170488  0.052
O  O32  1  0.33486163  0.45000737  0.31674809  1  -0.808288  0.036164  1.931586  0.063  -0.784672  0.025841  2.145585  0.045  -0.812311  0.019354  2.111487  0.036  -0.575083  -0.761855  0.031636  2.170573  0.052
O  O33  1  0.45840891  0.99843372  0.31014459  1  -0.616161  -0.000441  2.024438  0.001  -0.545303  -0.000226  2.240105  0.001  -0.572223  -0.000568  2.230072  0.0  -0.293751  -0.526346  0.000153  2.246623  0.001
O  O34  1  0.54159695  0.00152207  0.68985097  1  -0.61568  -0.000439  2.024764  0.001  -0.545001  -0.000228  2.240478  0.001  -0.571914  -0.00057  2.230453  0.0  -0.293707  -0.526036  0.000152  2.246989  0.001
