# generated using pymatgen
data_HgH5C5NCl2O
_symmetry_space_group_name_H-M   'P 1'
_cell_length_a   6.56085509
_cell_length_b   7.23219889
_cell_length_c   10.10079705
_cell_angle_alpha   75.51335003
_cell_angle_beta   73.04868211
_cell_angle_gamma   63.43191954
_symmetry_Int_Tables_number   1
_chemical_formula_structural   HgH5C5NCl2O
_chemical_formula_sum   'Hg2 H10 C10 N2 Cl4 O2'
_cell_volume   406.00592227
_cell_formula_units_Z   2
loop_
 _symmetry_equiv_pos_site_id
 _symmetry_equiv_pos_as_xyz
  1  'x, y, z'
loop_
 _atom_site_type_symbol
 _atom_site_label
 _atom_site_symmetry_multiplicity
 _atom_site_fract_x
 _atom_site_fract_y
 _atom_site_fract_z
 _atom_site_occupancy
 _atom_site_pbe_bader_spin_density
 _atom_site_pbe_cm5_charge
 _atom_site_pbe_ddec_charge
 _atom_site_pbe_ddec_spin_density
 _atom_site_pbe_ddec_sum_bond_order
 _atom_site_pbe_magmom
Hg  Hg0  1  0.66658264  0.18251716  0.98157343  1  0  0.497212  0.63052  0  2.579105  0
Hg  Hg1  1  0.33341064  0.81748374  0.01842449  1  0  0.497186  0.630474  0  2.579162  0
H  H2  1  0.96554988  0.41673274  0.13325526  1  0  0.120346  0.119594  0  1.011176  0
H  H3  1  0.03443706  0.58328998  0.86675085  1  0  0.120375  0.119673  0  1.010956  0
H  H4  1  0.00494727  0.23107525  0.37562963  1  0  0.101552  0.120471  0  1.00301  0
H  H5  1  0.99507845  0.76893906  0.62435685  1  0  0.10152  0.120499  0  1.002951  0
H  H6  1  0.77549227  0.42986383  0.58048617  1  0  0.091739  0.104149  0  1.038029  0
H  H7  1  0.22455169  0.57012692  0.41949319  1  0  0.091757  0.104272  0  1.037788  0
H  H8  1  0.51688645  0.81017659  0.53187410  1  0  0.103331  0.118321  0  1.006087  0
H  H9  1  0.48314829  0.18979109  0.46812695  1  0  0.103323  0.118413  0  1.00596  0
H  H10  1  0.49786694  0.97459911  0.28073419  1  0  0.106565  0.100777  0  1.0607  0
H  H11  1  0.50213657  0.02537065  0.71928224  1  0  0.106564  0.100762  0  1.060479  0
C  C12  1  0.87181092  0.49375866  0.22593451  1  0  0.036611  -0.022112  0  3.84899  0
C  C13  1  0.12817408  0.50625015  0.77407544  1  0  0.036608  -0.021974  0  3.848792  0
C  C14  1  0.89045009  0.39600794  0.36117478  1  0  -0.082843  -0.098588  0  3.990638  0
C  C15  1  0.10956542  0.60400036  0.63882855  1  0  -0.082821  -0.098685  0  3.99066  0
C  C16  1  0.76358040  0.50686091  0.47391345  1  0  -0.078476  -0.049485  0  3.971769  0
C  C17  1  0.23642874  0.49314748  0.52608215  1  0  -0.078595  -0.049723  0  3.971496  0
C  C18  1  0.61983979  0.71775221  0.44686378  1  0  -0.084833  -0.098429  0  3.986449  0
C  C19  1  0.38015770  0.28223158  0.55313939  1  0  -0.084762  -0.098563  0  3.986257  0
C  C20  1  0.60431762  0.81146811  0.31084572  1  0  0.02574  -0.04227  0  3.885673  0
C  C21  1  0.39567757  0.18851727  0.68916156  1  0  0.025785  -0.042043  0  3.885345  0
N  N22  1  0.72921681  0.69913534  0.20258611  1  0  -0.1255  0.311555  0  3.949764  0
N  N23  1  0.27076494  0.30086267  0.79742044  1  0  -0.125589  0.311379  0  3.949983  0
Cl  Cl24  1  0.46543136  0.34917213  0.18277718  1  0  -0.221641  -0.355392  0  1.452908  0
Cl  Cl25  1  0.53457073  0.65083792  0.81721350  1  0  -0.221619  -0.355379  0  1.452889  0
Cl  Cl26  1  0.92292451  0.06685414  0.77282210  1  0  -0.237149  -0.352569  0  1.330377  0
Cl  Cl27  1  0.07706085  0.93315773  0.22716941  1  0  -0.237161  -0.352558  0  1.330382  0
O  O28  1  0.71124359  0.78964878  0.07181059  1  0  -0.252644  -0.486562  0  2.085994  0
O  O29  1  0.28870983  0.21036675  0.92820209  1  0  -0.252581  -0.486528  0  2.086095  0
