# generated using pymatgen
data_CuH6C4SN3ClO3
_symmetry_space_group_name_H-M   'P 1'
_cell_length_a   5.84657183
_cell_length_b   7.29580700
_cell_length_c   9.76897966
_cell_angle_alpha   93.37881773
_cell_angle_beta   107.55439809
_cell_angle_gamma   90.35444713
_symmetry_Int_Tables_number   1
_chemical_formula_structural   CuH6C4SN3ClO3
_chemical_formula_sum   'Cu2 H12 C8 S2 N6 Cl2 O6'
_cell_volume   396.47867155
_cell_formula_units_Z   2
loop_
 _symmetry_equiv_pos_site_id
 _symmetry_equiv_pos_as_xyz
  1  'x, y, z'
loop_
 _atom_site_type_symbol
 _atom_site_label
 _atom_site_symmetry_multiplicity
 _atom_site_fract_x
 _atom_site_fract_y
 _atom_site_fract_z
 _atom_site_occupancy
 _atom_site_hle17_ddec_charge
 _atom_site_hle17_ddec_spin_density
 _atom_site_hle17_ddec_sum_bond_order
 _atom_site_hle17_magmom
 _atom_site_hse06_10hf_ddec_charge
 _atom_site_hse06_10hf_ddec_spin_density
 _atom_site_hse06_10hf_ddec_sum_bond_order
 _atom_site_hse06_10hf_magmom
 _atom_site_hse06_ddec_charge
 _atom_site_hse06_ddec_spin_density
 _atom_site_hse06_ddec_sum_bond_order
 _atom_site_hse06_magmom
 _atom_site_pbe_cm5_charge
 _atom_site_pbe_ddec_charge
 _atom_site_pbe_ddec_spin_density
 _atom_site_pbe_ddec_sum_bond_order
 _atom_site_pbe_magmom
Cu  Cu0  1  0.49999774  0.00000899  0.50000041  1  0.820084  0.664395  1.880188  0.501  0.818706  0.760744  2.260672  0.617  0.9076  0.824029  2.191582  0.701  0.678556  0.766888  0.719019  2.306034  0.565
Cu  Cu1  1  0.49998946  0.50000239  0.49999946  1  0.809322  0.658085  1.873341  0.495  0.803265  0.752915  2.257732  0.61  0.892232  0.815443  2.188172  0.693  0.673536  0.751885  0.712489  2.302942  0.559
H  H2  1  0.99166270  0.01756246  0.25227019  1  0.126806  0.000594  0.95622  0.001  0.131318  0.000564  1.021546  0.001  0.134166  0.000414  1.01762  0.001  0.142561  0.128974  0.000676  1.024598  0.001
H  H3  1  0.00833225  0.98243957  0.74772534  1  0.12676  0.000592  0.956295  0.001  0.13126  0.000564  1.021603  0.001  0.134099  0.000415  1.017697  0.001  0.142543  0.128916  0.000676  1.024652  0.001
H  H4  1  0.99483544  0.43752607  0.25467456  1  0.125503  0.000565  0.966828  0.001  0.128993  0.000544  1.034384  0.001  0.132346  0.000391  1.029489  0.001  0.140408  0.126403  0.000663  1.0379  0.001
H  H5  1  0.00516123  0.56247311  0.74533342  1  0.125508  0.000565  0.966854  0.001  0.128944  0.000544  1.034453  0.001  0.132292  0.000391  1.029563  0.001  0.140398  0.126353  0.000663  1.037973  0.001
H  H6  1  0.55771193  0.75280017  0.13444923  1  0.105758  -0.000162  0.909487  0.0  0.118599  -0.000111  0.968513  0.0  0.120127  -8.4e-05  0.967439  0.0  0.116977  0.117432  -0.00012  0.969344  0.0
H  H7  1  0.44229563  0.24720320  0.86554863  1  0.10576  -0.000166  0.909381  0.0  0.118577  -0.000111  0.96845  0.0  0.120107  -8.4e-05  0.967374  0.0  0.116963  0.11741  -0.00012  0.969275  0.0
H  H8  1  0.67661709  0.55881905  0.06252114  1  0.08947  0.000202  0.940388  0.0  0.101003  0.000145  1.005662  0.0  0.102317  9.8e-05  1.004637  0.0  0.116983  0.099956  0.000195  1.006506  0.0
H  H9  1  0.32337793  0.44118429  0.93748265  1  0.089495  0.000203  0.94042  0.0  0.101036  0.000145  1.005673  0.0  0.10235  9.8e-05  1.004651  0.0  0.116997  0.099989  0.000195  1.00652  0.0
H  H10  1  0.87150720  0.77768930  0.93132464  1  0.140427  -5.6e-05  0.930874  0.0  0.154329  -4.9e-05  0.986598  0.0  0.15751  -4e-05  0.985158  0.0  0.108243  0.152121  -5.1e-05  0.987636  0.0
H  H11  1  0.12849960  0.22229346  0.06867413  1  0.140417  -5.7e-05  0.930882  0.0  0.154329  -4.9e-05  0.986642  0.0  0.157512  -4e-05  0.985201  0.0  0.108261  0.152106  -5.1e-05  0.98767  0.0
H  H12  1  0.72912605  0.96426258  0.99829048  1  0.135916  -1.3e-05  0.961834  0.0  0.145009  -1e-05  1.02421  0.0  0.148466  -1.1e-05  1.022743  0.0  0.105489  0.1425  -6e-06  1.02546  0.0
H  H13  1  0.27088853  0.03573667  0.00170742  1  0.135936  -1.2e-05  0.961764  0.0  0.144987  -1e-05  1.024252  0.0  0.148444  -1.1e-05  1.022787  0.0  0.105498  0.142462  -6e-06  1.025486  0.0
C  C14  1  0.04657354  0.87938690  0.28042862  1  0.203675  -0.007849  3.555445  -0.003  0.145966  -0.000649  3.813007  0.001  0.163822  -0.003174  3.821803  -0.001  0.174632  0.134389  0.001266  3.807473  0.003
C  C15  1  0.95343239  0.12062058  0.71957119  1  0.20364  -0.007841  3.555726  -0.003  0.146054  -0.000646  3.813186  0.001  0.163909  -0.003173  3.821979  -0.001  0.17471  0.134469  0.001267  3.807653  0.003
C  C16  1  0.04883633  0.58092221  0.28261887  1  0.202327  -0.007383  3.572784  -0.003  0.141306  -0.000549  3.833508  0.001  0.159559  -0.003004  3.841598  -0.001  0.174036  0.129541  0.001424  3.828468  0.003
C  C17  1  0.95115699  0.41908391  0.71738168  1  0.202164  -0.007398  3.572767  -0.003  0.141208  -0.000549  3.833497  0.001  0.159465  -0.003005  3.841586  -0.001  0.17397  0.129443  0.001424  3.828452  0.003
C  C18  1  0.70376214  0.70582610  0.09350671  1  0.040068  0.001395  3.596997  0.002  -0.023724  0.001005  3.853923  0.001  -0.017905  0.000762  3.862982  0.001  -0.050258  -0.027558  0.001187  3.847914  0.001
C  C19  1  0.29623830  0.29417867  0.90648891  1  0.040031  0.001394  3.596957  0.002  -0.023733  0.001005  3.853928  0.001  -0.01792  0.000762  3.863002  0.001  -0.050212  -0.027591  0.001187  3.847892  0.001
C  C20  1  0.71794872  0.81612742  0.96875230  1  -0.341355  0.00011  3.585422  0.0  -0.379151  4.4e-05  3.84143  0.0  -0.385702  -1.5e-05  3.847368  0.0  -0.165981  -0.374567  0.000145  3.837355  0.0
C  C21  1  0.28206043  0.18387048  0.03124353  1  -0.341278  0.000113  3.585287  0.0  -0.37916  4.6e-05  3.841447  0.0  -0.385715  -1.4e-05  3.847398  0.0  -0.166035  -0.374487  0.000145  3.837257  0.0
S  S22  1  0.45232685  0.77699429  0.81633631  1  1.341771  -0.000244  5.594435  0.0  1.264058  -4.9e-05  6.110751  0.0  1.311906  -8e-05  6.086446  0.0  0.495263  1.231439  5.6e-05  6.125959  0.0
S  S23  1  0.54767523  0.22300635  0.18366043  1  1.341496  -0.000228  5.594337  0.0  1.263794  -4.4e-05  6.110694  0.0  1.311646  -7.6e-05  6.086389  0.0  0.495119  1.231153  5.6e-05  6.125877  0.0
N  N24  1  0.23626076  0.83465145  0.38554604  1  -0.224047  0.067763  3.278327  0.086  -0.186306  0.049124  3.585883  0.065  -0.211721  0.040312  3.606645  0.056  -0.265601  -0.171675  0.053993  3.57436  0.068
N  N25  1  0.76374313  0.16534914  0.61445716  1  -0.224003  0.067766  3.278457  0.086  -0.186365  0.049124  3.586102  0.065  -0.211776  0.040312  3.606855  0.056  -0.265645  -0.171732  0.053994  3.574579  0.068
N  N26  1  0.23717560  0.64669834  0.38729433  1  -0.224715  0.067458  3.281637  0.086  -0.185105  0.048943  3.590261  0.064  -0.210935  0.040235  3.610746  0.056  -0.267682  -0.170488  0.053621  3.579027  0.067
N  N27  1  0.76282110  0.35330229  0.61270452  1  -0.224618  0.06746  3.281452  0.086  -0.18501  0.048939  3.590081  0.064  -0.210842  0.040233  3.610567  0.056  -0.267625  -0.170394  0.053619  3.578843  0.067
N  N28  1  0.92732221  0.72282492  0.21312558  1  -0.065747  0.003285  3.48461  0.005  0.029377  0.002125  3.702681  0.003  0.012044  0.001593  3.723004  0.003  -0.220782  0.040672  0.002554  3.688768  0.004
N  N29  1  0.07267461  0.27717842  0.78687854  1  -0.065607  0.003288  3.484549  0.005  0.029486  0.002125  3.70259  0.003  0.012155  0.001592  3.722913  0.003  -0.220804  0.040782  0.002555  3.688672  0.004
Cl  Cl30  1  0.75896637  0.75135693  0.51419044  1  -0.358812  0.214507  1.116953  0.267  -0.411957  0.142882  1.450526  0.187  -0.463648  0.10465  1.432448  0.147  -0.20785  -0.3813  0.167835  1.463986  0.21
Cl  Cl31  1  0.24103757  0.24864504  0.48581284  1  -0.358773  0.214487  1.117051  0.266  -0.411896  0.142872  1.450635  0.187  -0.463579  0.104649  1.432548  0.147  -0.207836  -0.381243  0.167825  1.464096  0.21
O  O32  1  0.44565890  0.93556970  0.72931511  1  -0.708142  -0.000799  2.030115  0.001  -0.674934  -0.000341  2.313698  0.001  -0.69851  -0.000804  2.298599  0.001  -0.358853  -0.658478  0.000363  2.323763  0.002
O  O33  1  0.55433903  0.06441582  0.27068322  1  -0.708049  -0.000799  2.029725  0.001  -0.674838  -0.00034  2.313327  0.001  -0.698412  -0.000799  2.298225  0.001  -0.358755  -0.658379  0.000364  2.32339  0.002
O  O34  1  0.24806107  0.77228914  0.87644240  1  -0.695473  0.000643  1.919705  0.001  -0.636071  0.000401  2.1529  0.001  -0.656686  0.000198  2.138424  0.0  -0.354323  -0.621228  0.000799  2.162205  0.001
O  O35  1  0.75194076  0.22770458  0.12356010  1  -0.695418  0.000642  1.919793  0.001  -0.636036  0.0004  2.153021  0.001  -0.656663  0.000196  2.138554  0.0  -0.354331  -0.621195  0.000799  2.162325  0.001
O  O36  1  0.48166937  0.59940932  0.74534427  1  -0.708198  -0.00125  2.011721  0.0  -0.673719  -0.000846  2.290557  0.001  -0.697087  -0.001177  2.276053  0.0  -0.359318  -0.657542  -0.000351  2.30012  0.001
O  O37  1  0.51833051  0.40058031  0.25465564  1  -0.708099  -0.001256  2.011842  0.0  -0.6736  -0.000849  2.290666  0.001  -0.696973  -0.001181  2.276175  0.0  -0.359254  -0.657426  -0.000351  2.30023  0.001
