# generated using pymatgen
data_ZnH16C11(NO3)2
_symmetry_space_group_name_H-M   'P 1'
_cell_length_a   6.06084316
_cell_length_b   7.09297951
_cell_length_c   8.75174408
_cell_angle_alpha   102.30575176
_cell_angle_beta   104.10755378
_cell_angle_gamma   112.25909632
_symmetry_Int_Tables_number   1
_chemical_formula_structural   ZnH16C11(NO3)2
_chemical_formula_sum   'Zn1 H16 C11 N2 O6'
_cell_volume   317.53755763
_cell_formula_units_Z   1
loop_
 _symmetry_equiv_pos_site_id
 _symmetry_equiv_pos_as_xyz
  1  'x, y, z'
loop_
 _atom_site_type_symbol
 _atom_site_label
 _atom_site_symmetry_multiplicity
 _atom_site_fract_x
 _atom_site_fract_y
 _atom_site_fract_z
 _atom_site_occupancy
 _atom_site_hle17_bader_spin_density
 _atom_site_hle17_ddec_charge
 _atom_site_hle17_ddec_spin_density
 _atom_site_hle17_ddec_sum_bond_order
 _atom_site_hle17_magmom
 _atom_site_hse06_10hf_bader_spin_density
 _atom_site_hse06_10hf_ddec_charge
 _atom_site_hse06_10hf_ddec_spin_density
 _atom_site_hse06_10hf_ddec_sum_bond_order
 _atom_site_hse06_10hf_magmom
 _atom_site_hse06_bader_spin_density
 _atom_site_hse06_ddec_charge
 _atom_site_hse06_ddec_spin_density
 _atom_site_hse06_ddec_sum_bond_order
 _atom_site_hse06_magmom
 _atom_site_pbe_bader_spin_density
 _atom_site_pbe_cm5_charge
 _atom_site_pbe_ddec_charge
 _atom_site_pbe_ddec_spin_density
 _atom_site_pbe_ddec_sum_bond_order
 _atom_site_pbe_magmom
Zn  Zn0  1  0.57632572  0.86144694  0.67174801  1  0  1.103787  0  1.732138  0  0  0.930834  0  2.188847  0  0  0.977887  0  2.130688  0  0  0.668609  0.897623  0  2.229201  0
H  H1  1  0.12458230  0.84361099  0.69101349  1  0  0.42233  0  0.884427  0  0  0.388939  0  0.951925  0  0  0.400721  0  0.934788  0  0  0.286731  0.380701  0  0.963869  0
H  H2  1  0.11677973  0.63711057  0.55959455  1  0  0.41097  0  0.905331  0  0  0.377659  0  0.973447  0  0  0.38983  0  0.956058  0  0  0.282192  0.369111  0  0.985623  0
H  H3  1  0.50951441  0.57177460  0.82618760  1  0  0.426804  0  0.873502  0  0  0.396729  0  0.934671  0  0  0.407696  0  0.918859  0  0  0.292104  0.388785  0  0.946207  0
H  H4  1  0.79953535  0.76751488  0.93075251  1  0  0.372546  0  0.960334  0  0  0.32725  0  1.046964  0  0  0.339192  0  1.030443  0  0  0.275254  0.318697  0  1.058809  0
H  H5  1  0.55299533  0.23320457  0.76664456  1  0  0.270837  0  0.950751  0  0  0.257595  0  1.01006  0  0  0.264989  0  1.005104  0  0  0.288554  0.252004  0  1.013958  0
H  H6  1  0.34473742  0.40136707  0.14037145  1  0  0.102647  0  0.948343  0  0  0.116878  0  1.009664  0  0  0.118668  0  1.010109  0  0  0.097837  0.115408  0  1.00987  0
H  H7  1  0.31338617  0.62958201  0.11957863  1  0  0.094192  0  0.952058  0  0  0.108793  0  1.01662  0  0  0.110385  0  1.016807  0  0  0.097659  0.107407  0  1.017164  0
H  H8  1  0.82627407  0.41228115  0.05009287  1  0  0.091179  0  0.922486  0  0  0.107262  0  0.983731  0  0  0.108942  0  0.983338  0  0  0.099024  0.105855  0  0.984279  0
H  H9  1  0.87342333  0.17862428  0.03444359  1  0  0.06924  0  0.947884  0  0  0.084798  0  1.01501  0  0  0.085758  0  1.014931  0  0  0.091371  0.083941  0  1.015272  0
H  H10  1  0.02377308  0.48466850  0.83601752  1  0  0.081486  0  0.92353  0  0  0.090422  0  0.987759  0  0  0.092543  0  0.986354  0  0  0.113066  0.088657  0  0.989352  0
H  H11  1  0.84184382  0.25964623  0.53868899  1  0  0.086473  0  0.923952  0  0  0.103179  0  0.983672  0  0  0.104079  0  0.983438  0  0  0.114629  0.102441  0  0.984119  0
H  H12  1  0.70380627  0.42785389  0.60021413  1  0  0.095428  0  0.918354  0  0  0.113318  0  0.976451  0  0  0.114563  0  0.975443  0  0  0.114131  0.11235  0  0.977295  0
H  H13  1  0.79620822  0.82944355  0.24919203  1  0  0.082448  0  0.934981  0  0  0.091406  0  0.998489  0  0  0.094382  0  0.995824  0  0  0.116801  0.088946  0  1.001018  0
H  H14  1  0.15093622  0.03718127  0.52184773  1  0  0.110862  0  0.992844  0  0  0.118742  0  1.05544  0  0  0.122125  0  1.054655  0  0  0.107769  0.115706  0  1.057287  0
H  H15  1  0.67110850  0.17958518  0.25365471  1  0  0.118844  0  0.976274  0  0  0.125071  0  1.043274  0  0  0.12902  0  1.041684  0  0  0.107508  0.122055  0  1.04476  0
H  H16  1  0.28931327  0.96222319  0.98695320  1  0  0.080626  0  0.943525  0  0  0.091244  0  1.005405  0  0  0.093511  0  1.003695  0  0  0.115392  0.089054  0  1.007761  0
C  C17  1  0.25041753  0.55697843  0.33160782  1  0  0.705009  0  3.846181  0  0  0.65656  0  4.146773  0  0  0.689726  0  4.141435  0  0  0.209903  0.634064  0  4.149322  0
C  C18  1  0.22303597  0.48217291  0.14898978  1  0  -0.269725  0  3.692057  0  0  -0.307943  0  3.942571  0  0  -0.314235  0  3.95231  0  0  -0.171587  -0.303366  0  3.935399  0
C  C19  1  0.95057105  0.34046513  0.02316346  1  0  -0.112719  0  3.659484  0  0  -0.161721  0  3.92335  0  0  -0.161671  0  3.935409  0  0  -0.162211  -0.161158  0  3.914285  0
C  C20  1  0.94011811  0.32049409  0.84297270  1  0  -0.003842  0  3.612103  0  0  -0.023435  0  3.860694  0  0  -0.024438  0  3.873414  0  0  -0.00587  -0.022821  0  3.851732  0
C  C21  1  0.10184192  0.21147674  0.79720484  1  0  0.651504  0  3.836177  0  0  0.593303  0  4.147513  0  0  0.625572  0  4.141728  0  0  0.217411  0.57115  0  4.151607  0
C  C22  1  0.67488225  0.25880895  0.56720084  1  0  -0.019748  0  3.626351  0  0  -0.079965  0  3.877535  0  0  -0.076484  0  3.887102  0  0  -0.065234  -0.082  0  3.870142  0
C  C23  1  0.99251957  0.90956336  0.25381503  1  0  0.136997  0  3.69679  0  0  0.106183  0  3.951547  0  0  0.113271  0  3.968016  0  0  0.051468  0.101777  0  3.940445  0
C  C24  1  0.19342581  0.02629466  0.40745427  1  0  -0.164192  0  3.685688  0  0  -0.182543  0  3.931986  0  0  -0.190262  0  3.952679  0  0  -0.087683  -0.177346  0  3.918858  0
C  C25  1  0.44340840  0.12381794  0.41049281  1  0  0.139083  0  3.705842  0  0  0.156029  0  3.941638  0  0  0.160659  0  3.963435  0  0  0.015689  0.152968  0  3.926664  0
C  C26  1  0.47925343  0.10162242  0.25645074  1  0  -0.171657  0  3.699978  0  0  -0.190623  0  3.948569  0  0  -0.198687  0  3.9693  0  0  -0.083375  -0.185262  0  3.934729  0
C  C27  1  0.26832544  0.98388221  0.10894749  1  0  0.119621  0  3.726146  0  0  0.090025  0  3.980539  0  0  0.09603  0  3.999072  0  0  0.042734  0.086342  0  3.968501  0
N  N28  1  0.67557402  0.19287824  0.71790012  1  0  -0.45874  0  3.214849  0  0  -0.384832  0  3.476279  0  0  -0.404104  0  3.482756  0  0  -0.477823  -0.371226  0  3.47145  0
N  N29  1  0.02790142  0.88864240  0.10661216  1  0  -0.318672  0  3.204151  0  0  -0.251193  0  3.447274  0  0  -0.266657  0  3.464336  0  0  -0.314168  -0.240276  0  3.435578  0
O  O30  1  0.05723917  0.48997588  0.37362479  1  0  -0.628847  0  1.967134  0  0  -0.569796  0  2.183985  0  0  -0.59508  0  2.176479  0  0  -0.315682  -0.551882  0  2.188717  0
O  O31  1  0.48044964  0.69144677  0.43230222  1  0  -0.671699  0  2.013067  0  0  -0.601582  0  2.281737  0  0  -0.630312  0  2.267849  0  0  -0.340502  -0.581494  0  2.29087  0
O  O32  1  0.98554323  0.00553352  0.72463221  1  0  -0.642853  0  2.080658  0  0  -0.560807  0  2.323566  0  0  -0.59005  0  2.312559  0  0  -0.302883  -0.540195  0  2.33104  0
O  O33  1  0.33828811  0.32511982  0.83604785  1  0  -0.612398  0  2.005596  0  0  -0.5517  0  2.227673  0  0  -0.576038  0  2.218834  0  0  -0.305299  -0.534592  0  2.234594  0
O  O34  1  0.20410745  0.74370174  0.67906359  1  0  -0.858491  0  1.906956  0  0  -0.798149  0  2.127922  0  0  -0.820621  0  2.089606  0  0  -0.588094  -0.781762  0  2.154854  0
O  O35  1  0.65224394  0.69040002  0.81532573  1  0  -0.839328  0  1.975948  0  0  -0.76793  0  2.213585  0  0  -0.79091  0  2.17505  0  0  -0.585424  -0.751662  0  2.241075  0
