# generated using pymatgen
data_FeH8C6(N4O3)2
_symmetry_space_group_name_H-M   'P 1'
_cell_length_a   7.13334929
_cell_length_b   6.78156429
_cell_length_c   8.17411644
_cell_angle_alpha   106.11697654
_cell_angle_beta   91.88514332
_cell_angle_gamma   115.89736183
_symmetry_Int_Tables_number   1
_chemical_formula_structural   FeH8C6(N4O3)2
_chemical_formula_sum   'Fe1 H8 C6 N8 O6'
_cell_volume   336.25547203
_cell_formula_units_Z   1
loop_
 _symmetry_equiv_pos_site_id
 _symmetry_equiv_pos_as_xyz
  1  'x, y, z'
loop_
 _atom_site_type_symbol
 _atom_site_label
 _atom_site_symmetry_multiplicity
 _atom_site_fract_x
 _atom_site_fract_y
 _atom_site_fract_z
 _atom_site_occupancy
 _atom_site_pbe_bader_spin_density
 _atom_site_pbe_cm5_charge
 _atom_site_pbe_ddec_charge
 _atom_site_pbe_ddec_spin_density
 _atom_site_pbe_ddec_sum_bond_order
 _atom_site_pbe_magmom
Fe  Fe0  1  0.50004183  0.49980193  0.50006841  1  0  0.7654  0.650032  0  3.430445  0
H  H1  1  0.76183453  0.00384330  0.69971734  1  0  0.126862  0.101406  0  1.031697  0
H  H2  1  0.23797230  0.99562298  0.30057016  1  0  0.126837  0.101258  0  1.030811  0
H  H3  1  0.22835807  0.62804463  0.30831504  1  0  0.136797  0.123461  0  0.972691  0
H  H4  1  0.77152459  0.37146116  0.69200319  1  0  0.13684  0.123575  0  0.971878  0
H  H5  1  0.17447114  0.27554900  0.63087739  1  0  0.300594  0.371216  0  0.956592  0
H  H6  1  0.82535344  0.72413793  0.36877992  1  0  0.300489  0.371167  0  0.95601  0
H  H7  1  0.07712459  0.25302038  0.44821117  1  0  0.299067  0.371349  0  0.968811  0
H  H8  1  0.92333115  0.74767271  0.55151323  1  0  0.298781  0.371443  0  0.968698  0
C  C9  1  0.64398429  0.00079782  0.61008828  1  0  0.055939  0.044418  0  3.882217  0
C  C10  1  0.35594893  0.99863623  0.39009247  1  0  0.056671  0.046387  0  3.88148  0
C  C11  1  0.35090447  0.79375064  0.39401352  1  0  0.061593  0.055336  0  3.8536  0
C  C12  1  0.64907062  0.20572351  0.60616948  1  0  0.062161  0.056744  0  3.851782  0
C  C13  1  0.34603499  0.30803287  0.10998588  1  0  0.309262  0.418802  0  4.20603  0
C  C14  1  0.65389109  0.69190985  0.89011747  1  0  0.309461  0.418975  0  4.207002  0
N  N15  1  0.49597174  0.79180414  0.50339061  1  0  -0.317973  -0.133403  0  3.580079  0
N  N16  1  0.50410038  0.20765485  0.49672628  1  0  -0.318271  -0.135076  0  3.580246  0
N  N17  1  0.40213953  0.37736367  0.26079704  1  0  -0.397029  -0.458981  0  3.489099  0
N  N18  1  0.59802516  0.62229257  0.73930900  1  0  -0.397276  -0.458786  0  3.491297  0
N  N19  1  0.17675205  0.04556673  0.85015715  1  0  0.125159  0.636529  0  4.319005  0
N  N20  1  0.82312845  0.95515015  0.14972168  1  0  0.125678  0.637919  0  4.320853  0
N  N21  1  0.29228844  0.26889280  0.94531764  1  0  -0.214196  -0.359271  0  3.207606  0
N  N22  1  0.70758525  0.73158527  0.05492008  1  0  -0.214349  -0.360311  0  3.206555  0
O  O23  1  0.18051823  0.36936935  0.55506157  1  0  -0.533302  -0.653368  0  2.130384  0
O  O24  1  0.81999528  0.63079178  0.44476684  1  0  -0.532634  -0.653444  0  2.127444  0
O  O25  1  0.13411981  0.88120964  0.90702362  1  0  -0.162732  -0.390054  0  1.900839  0
O  O26  1  0.86566737  0.11903272  0.09230096  1  0  -0.162904  -0.390679  0  1.901585  0
O  O27  1  0.11140253  0.01351561  0.69208766  1  0  -0.173128  -0.453012  0  2.065652  0
O  O28  1  0.88844744  0.98774831  0.30787865  1  0  -0.173797  -0.45363  0  2.065854  0
