# generated using pymatgen
data_AgH5C9N4O
_symmetry_space_group_name_H-M   'P 1'
_cell_length_a   6.27527732
_cell_length_b   8.37999341
_cell_length_c   10.21299333
_cell_angle_alpha   86.38265290
_cell_angle_beta   72.11442423
_cell_angle_gamma   78.16040295
_symmetry_Int_Tables_number   1
_chemical_formula_structural   AgH5C9N4O
_chemical_formula_sum   'Ag2 H10 C18 N8 O2'
_cell_volume   500.23937635
_cell_formula_units_Z   2
loop_
 _symmetry_equiv_pos_site_id
 _symmetry_equiv_pos_as_xyz
  1  'x, y, z'
loop_
 _atom_site_type_symbol
 _atom_site_label
 _atom_site_symmetry_multiplicity
 _atom_site_fract_x
 _atom_site_fract_y
 _atom_site_fract_z
 _atom_site_occupancy
 _atom_site_hle17_bader_spin_density
 _atom_site_hle17_ddec_charge
 _atom_site_hle17_ddec_spin_density
 _atom_site_hle17_ddec_sum_bond_order
 _atom_site_hle17_magmom
 _atom_site_hse06_10hf_bader_spin_density
 _atom_site_hse06_10hf_ddec_charge
 _atom_site_hse06_10hf_ddec_spin_density
 _atom_site_hse06_10hf_ddec_sum_bond_order
 _atom_site_hse06_10hf_magmom
 _atom_site_hse06_bader_spin_density
 _atom_site_hse06_ddec_charge
 _atom_site_hse06_ddec_spin_density
 _atom_site_hse06_ddec_sum_bond_order
 _atom_site_hse06_magmom
 _atom_site_pbe_bader_spin_density
 _atom_site_pbe_cm5_charge
 _atom_site_pbe_ddec_charge
 _atom_site_pbe_ddec_spin_density
 _atom_site_pbe_ddec_sum_bond_order
 _atom_site_pbe_magmom
Ag  Ag0  1  0.78356025  0.16793770  0.08382667  1  0  0.653321  0  1.546588  0  0  0.526058  0  2.012957  0  0  0.547283  0  1.970221  0  0  0.54628  0.512318  0  2.041578  0
Ag  Ag1  1  0.86722902  0.66759537  0.91656164  1  0  0.653762  0  1.546192  0  0  0.526478  0  2.012437  0  0  0.547777  0  1.969635  0  0  0.546872  0.51288  0  2.040867  0
H  H2  1  0.19533335  0.90567264  0.43779593  1  0  0.147348  0  0.918085  0  0  0.160914  0  0.975629  0  0  0.162732  0  0.975995  0  0  0.11751  0.159585  0  0.975384  0
H  H3  1  0.63337798  0.40577549  0.56240006  1  0  0.147336  0  0.919243  0  0  0.161401  0  0.976246  0  0  0.163207  0  0.976706  0  0  0.11778  0.160049  0  0.975985  0
H  H4  1  0.49051497  0.82175502  0.37054609  1  0  0.146462  0  0.922866  0  0  0.161416  0  0.97665  0  0  0.163395  0  0.976387  0  0  0.118148  0.159971  0  0.976933  0
H  H5  1  0.86148996  0.32128364  0.62944648  1  0  0.144232  0  0.92484  0  0  0.159399  0  0.978691  0  0  0.161424  0  0.978418  0  0  0.117087  0.15795  0  0.978975  0
H  H6  1  0.53675630  0.79581227  0.60841330  1  0  0.149761  0  0.938933  0  0  0.167653  0  0.999154  0  0  0.168892  0  0.99976  0  0  0.102232  0.166664  0  0.99889  0
H  H7  1  0.14500458  0.29587169  0.39165427  1  0  0.150244  0  0.939245  0  0  0.16832  0  0.999256  0  0  0.169611  0  0.99981  0  0  0.102264  0.167444  0  0.998893  0
H  H8  1  0.24274315  0.86650054  0.69076715  1  0  0.144877  0  0.955955  0  0  0.163077  0  1.017968  0  0  0.16395  0  1.019045  0  0  0.100598  0.1626  0  1.016963  0
H  H9  1  0.93344822  0.36671773  0.30917523  1  0  0.145147  0  0.95529  0  0  0.163205  0  1.017469  0  0  0.164048  0  1.018554  0  0  0.100329  0.162634  0  1.016751  0
H  H10  1  0.37751856  0.66892469  0.73339217  1  0  0.133177  0  0.978306  0  0  0.147778  0  1.047305  0  0  0.149621  0  1.047208  0  0  0.09106  0.146741  0  1.046489  0
H  H11  1  0.11076853  0.16907187  0.26661160  1  0  0.132523  0  0.977932  0  0  0.147504  0  1.046515  0  0  0.14934  0  1.046434  0  0  0.090575  0.146201  0  1.04654  0
C  C12  1  0.29340854  0.80828917  0.16646661  1  0  -0.281932  0  3.912397  0  0  -0.264267  0  4.165592  0  0  -0.27939  0  4.182811  0  0  -0.059677  -0.253615  0  4.153427  0
C  C13  1  0.46027731  0.30777132  0.83358280  1  0  -0.283475  0  3.914241  0  0  -0.266398  0  4.168051  0  0  -0.281659  0  4.185422  0  0  -0.059761  -0.255701  0  4.155879  0
C  C14  1  0.26865680  0.70429736  0.29795495  1  0  0.121996  0  3.771041  0  0  0.136658  0  3.984046  0  0  0.140211  0  3.99374  0  0  0.060599  0.134133  0  3.977365  0
C  C15  1  0.56683676  0.20401179  0.70196493  1  0  0.12519  0  3.767793  0  0  0.140979  0  3.979189  0  0  0.144649  0  3.988892  0  0  0.061369  0.138393  0  3.972856  0
C  C16  1  0.18815556  0.77464345  0.07358733  1  0  0.329549  0  3.914836  0  0  0.308166  0  4.175836  0  0  0.324321  0  4.196163  0  0  0.184031  0.297326  0  4.161709  0
C  C17  1  0.26217188  0.27417633  0.92652562  1  0  0.332302  0  3.909844  0  0  0.311053  0  4.170731  0  0  0.327297  0  4.191009  0  0  0.185209  0.299848  0  4.157213  0
C  C18  1  0.42897058  0.92428633  0.14047180  1  0  0.319524  0  3.921581  0  0  0.299979  0  4.186396  0  0  0.316434  0  4.205848  0  0  0.182544  0.288317  0  4.173774  0
C  C19  1  0.56969219  0.42382461  0.85967148  1  0  0.322677  0  3.923456  0  0  0.303079  0  4.18834  0  0  0.319555  0  4.207843  0  0  0.18496  0.291777  0  4.17525  0
C  C20  1  0.42513520  0.54378522  0.26362627  1  0  0.291813  0  3.60169  0  0  0.27056  0  3.876686  0  0  0.280956  0  3.892648  0  0  0.20822  0.263269  0  3.866404  0
C  C21  1  0.68901290  0.04338948  0.73607049  1  0  0.288307  0  3.60315  0  0  0.266762  0  3.878273  0  0  0.27714  0  3.894228  0  0  0.206496  0.259597  0  3.867912  0
C  C22  1  0.03310993  0.67539212  0.34867141  1  0  0.284145  0  3.619906  0  0  0.265547  0  3.896529  0  0  0.275834  0  3.9117  0  0  0.207172  0.258346  0  3.886647  0
C  C23  1  0.38197872  0.17520142  0.65121876  1  0  0.282621  0  3.62025  0  0  0.26394  0  3.896589  0  0  0.274241  0  3.911726  0  0  0.206695  0.25671  0  3.887021  0
C  C24  1  0.32023836  0.79077923  0.41089169  1  0  -0.310587  0  3.585128  0  0  -0.353506  0  3.813787  0  0  -0.358825  0  3.821505  0  0  -0.148018  -0.349542  0  3.808183  0
C  C25  1  0.73127274  0.29068465  0.58915596  1  0  -0.307994  0  3.586265  0  0  -0.352602  0  3.814615  0  0  -0.358182  0  3.822632  0  0  -0.147288  -0.348538  0  3.809021  0
C  C26  1  0.31248684  0.68666525  0.53844590  1  0  0.568812  0  3.624572  0  0  0.556609  0  3.900312  0  0  0.576754  0  3.903397  0  0  0.171777  0.542806  0  3.897779  0
C  C27  1  0.85069581  0.18680159  0.46144592  1  0  0.566538  0  3.627547  0  0  0.556465  0  3.900806  0  0  0.5768  0  3.903695  0  0  0.172015  0.542538  0  3.898434  0
C  C28  1  0.37206218  0.75687792  0.65026866  1  0  -0.45133  0  3.659607  0  0  -0.529737  0  3.889395  0  0  -0.535503  0  3.89612  0  0  -0.253063  -0.52543  0  3.883822  0
C  C29  1  0.02211281  0.25705895  0.34970930  1  0  -0.450687  0  3.659395  0  0  -0.530132  0  3.888217  0  0  -0.535948  0  3.894886  0  0  -0.252512  -0.525755  0  3.883335  0
N  N30  1  0.09115342  0.73694605  0.00238988  1  0  -0.49992  0  3.082827  0  0  -0.438489  0  3.409847  0  0  -0.457227  0  3.412783  0  0  -0.395987  -0.425911  0  3.407123  0
N  N31  1  0.09385004  0.23675319  0.99778379  1  0  -0.50148  0  3.077074  0  0  -0.439937  0  3.403651  0  0  -0.458692  0  3.406535  0  0  -0.396419  -0.427519  0  3.401908  0
N  N32  1  0.54212743  0.02384870  0.12355030  1  0  -0.490019  0  3.074246  0  0  -0.430352  0  3.401745  0  0  -0.44921  0  3.404321  0  0  -0.392721  -0.417749  0  3.400047  0
N  N33  1  0.66581241  0.52348712  0.87657542  1  0  -0.492884  0  3.074693  0  0  -0.433036  0  3.401917  0  0  -0.451939  0  3.404586  0  0  -0.394851  -0.420529  0  3.400181  0
N  N34  1  0.55328356  0.42223751  0.22584056  1  0  -0.398201  0  2.710417  0  0  -0.359301  0  2.97959  0  0  -0.370702  0  2.986388  0  0  -0.301716  -0.351951  0  2.975531  0
N  N35  1  0.77910673  0.92161962  0.77371024  1  0  -0.395732  0  2.710268  0  0  -0.356777  0  2.979183  0  0  -0.368171  0  2.986013  0  0  -0.300204  -0.349659  0  2.975187  0
N  N36  1  0.84594892  0.65509791  0.38223295  1  0  -0.369521  0  2.602946  0  0  -0.339934  0  2.826307  0  0  -0.350867  0  2.839707  0  0  -0.282123  -0.332696  0  2.817649  0
N  N37  1  0.22807711  0.15518647  0.61781232  1  0  -0.369029  0  2.603552  0  0  -0.339649  0  2.827108  0  0  -0.350623  0  2.840577  0  0  -0.282454  -0.332533  0  2.818641  0
O  O38  1  0.25971467  0.55179381  0.54638930  1  0  -0.489819  0  1.903611  0  0  -0.449417  0  2.10704  0  0  -0.469201  0  2.105912  0  0  -0.257394  -0.435469  0  2.107404  0
O  O39  1  0.80565167  0.05203562  0.45337536  1  0  -0.489056  0  1.904976  0  0  -0.449467  0  2.107774  0  0  -0.469333  0  2.106552  0  0  -0.257635  -0.435498  0  2.108018  0
