# generated using pymatgen
data_CoH6C7N4
_symmetry_space_group_name_H-M   'P 1'
_cell_length_a   6.87438433
_cell_length_b   8.58642380
_cell_length_c   8.58653510
_cell_angle_alpha   112.30922588
_cell_angle_beta   105.06341529
_cell_angle_gamma   105.06314731
_symmetry_Int_Tables_number   1
_chemical_formula_structural   CoH6C7N4
_chemical_formula_sum   'Co2 H12 C14 N8'
_cell_volume   414.71787127
_cell_formula_units_Z   2
loop_
 _symmetry_equiv_pos_site_id
 _symmetry_equiv_pos_as_xyz
  1  'x, y, z'
loop_
 _atom_site_type_symbol
 _atom_site_label
 _atom_site_symmetry_multiplicity
 _atom_site_fract_x
 _atom_site_fract_y
 _atom_site_fract_z
 _atom_site_occupancy
 _atom_site_pbe_cm5_charge
 _atom_site_pbe_ddec_charge
 _atom_site_pbe_ddec_spin_density
 _atom_site_pbe_ddec_sum_bond_order
 _atom_site_pbe_magmom
Co  Co0  1  0.24999912  0.47940623  0.52058848  1  0.723145  0.578855  2.734738  2.864393  2.424
Co  Co1  1  0.74999837  0.52059109  0.47940837  1  0.723161  0.578858  2.734733  2.864461  2.424
H  H2  1  0.11748164  0.24584960  0.09456267  1  0.118705  0.113539  0.00035  0.997609  0.001
H  H3  1  0.38251447  0.90543170  0.75415092  1  0.118732  0.113582  0.00035  0.997561  0.001
H  H4  1  0.88250938  0.75414358  0.90542891  1  0.118685  0.113521  0.00035  0.997685  0.001
H  H5  1  0.61748363  0.09456695  0.24585240  1  0.118694  0.113516  0.00035  0.997676  0.001
H  H6  1  0.58864829  0.43348913  0.05486289  1  0.112125  0.100298  0.000608  1.026671  0.001
H  H7  1  0.91134910  0.94514542  0.56651259  1  0.112145  0.100308  0.000608  1.026628  0.001
H  H8  1  0.41135744  0.56651921  0.94513759  1  0.112099  0.100281  0.000609  1.026597  0.001
H  H9  1  0.08865806  0.05485328  0.43349382  1  0.112102  0.100266  0.000608  1.026725  0.001
H  H10  1  0.61545141  0.25117458  0.72533279  1  0.095528  0.103542  0.000193  1.003309  0.001
H  H11  1  0.88455164  0.27467192  0.74883337  1  0.09555  0.10356  0.000193  1.003308  0.001
H  H12  1  0.38454566  0.74881864  0.27465892  1  0.095534  0.103539  0.000193  1.003256  0.001
H  H13  1  0.11545038  0.72532541  0.25116561  1  0.095536  0.103543  0.000193  1.003284  0.001
C  C14  1  0.75000146  0.21647635  0.78353314  1  -0.152041  -0.196443  0.001905  3.988621  0.002
C  C15  1  0.25000014  0.78352647  0.21646785  1  -0.152001  -0.1963  0.001905  3.988606  0.002
C  C16  1  0.82328195  0.30484216  0.98850970  1  -0.032267  0.028727  0.008945  4.029544  0.011
C  C17  1  0.67671732  0.01149141  0.69516232  1  -0.032323  0.028565  0.008944  4.029694  0.011
C  C18  1  0.17672204  0.69515932  0.01148778  1  -0.032311  0.028524  0.008946  4.029678  0.011
C  C19  1  0.32328355  0.98850039  0.30484129  1  -0.032302  0.028499  0.008947  4.029483  0.011
C  C20  1  0.99940979  0.30582441  0.11619658  1  0.003921  -0.065729  0.014203  3.95534  0.018
C  C21  1  0.50059579  0.88380569  0.69417852  1  0.003857  -0.065782  0.014203  3.955701  0.018
C  C22  1  0.00058663  0.69417702  0.88380046  1  0.00391  -0.065701  0.014203  3.955449  0.018
C  C23  1  0.49941336  0.11619717  0.30582407  1  0.003957  -0.065639  0.014204  3.955285  0.018
C  C24  1  0.73155074  0.40330635  0.09640200  1  -0.000248  -0.07872  0.013538  3.994249  0.017
C  C25  1  0.76844302  0.90360335  0.59669806  1  -0.000213  -0.078615  0.013538  3.994236  0.017
C  C26  1  0.26844141  0.59670192  0.90359444  1  -0.000186  -0.078638  0.013534  3.994468  0.017
C  C27  1  0.23155873  0.09639668  0.40331004  1  -0.000155  -0.078474  0.013536  3.994253  0.017
N  N28  1  0.01132440  0.39954299  0.28804157  1  -0.290277  -0.191938  0.048206  3.68513  0.06
N  N29  1  0.48867515  0.71195965  0.60045696  1  -0.290301  -0.192012  0.04821  3.68525  0.06
N  N30  1  0.98867569  0.60045982  0.71195794  1  -0.290318  -0.192044  0.048211  3.685243  0.06
N  N31  1  0.51132512  0.28804039  0.39954618  1  -0.290315  -0.191927  0.048208  3.685164  0.06
N  N32  1  0.84596172  0.46065021  0.27643258  1  -0.293029  -0.200884  0.045635  3.682665  0.057
N  N33  1  0.65403725  0.72357120  0.53934864  1  -0.29303  -0.200852  0.045635  3.682636  0.057
N  N34  1  0.15404204  0.53935399  0.72356823  1  -0.293014  -0.200807  0.045635  3.682649  0.057
N  N35  1  0.34596387  0.27642747  0.46065648  1  -0.293053  -0.201019  0.045635  3.682783  0.057
