# generated using pymatgen
data_Cd2H10C3(SeN)2
_symmetry_space_group_name_H-M   'P 1'
_cell_length_a   6.73911124
_cell_length_b   6.77557062
_cell_length_c   10.93685300
_cell_angle_alpha   108.05257446
_cell_angle_beta   89.99993160
_cell_angle_gamma   90.00095076
_symmetry_Int_Tables_number   1
_chemical_formula_structural   Cd2H10C3(SeN)2
_chemical_formula_sum   'Cd4 H20 C6 Se4 N4'
_cell_volume   474.80744102
_cell_formula_units_Z   2
loop_
 _symmetry_equiv_pos_site_id
 _symmetry_equiv_pos_as_xyz
  1  'x, y, z'
loop_
 _atom_site_type_symbol
 _atom_site_label
 _atom_site_symmetry_multiplicity
 _atom_site_fract_x
 _atom_site_fract_y
 _atom_site_fract_z
 _atom_site_occupancy
 _atom_site_hle17_bader_spin_density
 _atom_site_hle17_ddec_charge
 _atom_site_hle17_ddec_spin_density
 _atom_site_hle17_ddec_sum_bond_order
 _atom_site_hle17_magmom
 _atom_site_hse06_10hf_bader_spin_density
 _atom_site_hse06_10hf_ddec_charge
 _atom_site_hse06_10hf_ddec_spin_density
 _atom_site_hse06_10hf_ddec_sum_bond_order
 _atom_site_hse06_10hf_magmom
 _atom_site_hse06_bader_spin_density
 _atom_site_hse06_ddec_charge
 _atom_site_hse06_ddec_spin_density
 _atom_site_hse06_ddec_sum_bond_order
 _atom_site_hse06_magmom
 _atom_site_pbe_bader_spin_density
 _atom_site_pbe_cm5_charge
 _atom_site_pbe_ddec_charge
 _atom_site_pbe_ddec_spin_density
 _atom_site_pbe_ddec_sum_bond_order
 _atom_site_pbe_magmom
Cd  Cd0  1  0.55563270  0.64609071  0.57908510  1  0  0.719374  0  2.172101  0  0  0.566452  0  2.634465  0  0  0.607144  0  2.607665  0  0  0.412697  0.538935  0  2.651601  0
Cd  Cd1  1  0.55574210  0.06684746  0.42073266  1  0  0.719539  0  2.172706  0  0  0.566068  0  2.636303  0  0  0.606831  0  2.609251  0  0  0.412338  0.538438  0  2.652873  0
Cd  Cd2  1  0.05573554  0.93314358  0.57926557  1  0  0.719625  0  2.172621  0  0  0.566166  0  2.636187  0  0  0.606932  0  2.609132  0  0  0.412343  0.538544  0  2.652742  0
Cd  Cd3  1  0.05562977  0.35390508  0.42090583  1  0  0.71944  0  2.172209  0  0  0.566479  0  2.634701  0  0  0.60717  0  2.607899  0  0  0.412727  0.538965  0  2.651839  0
H  H4  1  0.42265288  0.42655667  0.74884445  1  0  0.2759  0  0.944792  0  0  0.264637  0  1.007448  0  0  0.271518  0  1.00257  0  0  0.255737  0.259692  0  1.010969  0
H  H5  1  0.42259985  0.67771893  0.25087358  1  0  0.276239  0  0.944197  0  0  0.265124  0  1.006675  0  0  0.271961  0  1.001875  0  0  0.256201  0.260367  0  1.009879  0
H  H6  1  0.92258582  0.32227840  0.74911862  1  0  0.276284  0  0.944301  0  0  0.265229  0  1.006665  0  0  0.272065  0  1.001863  0  0  0.25628  0.26047  0  1.00988  0
H  H7  1  0.92265001  0.57345922  0.25115778  1  0  0.275863  0  0.94472  0  0  0.264619  0  1.007341  0  0  0.271505  0  1.002458  0  0  0.25576  0.259673  0  1.01086  0
H  H8  1  0.25485788  0.60408573  0.74709809  1  0  0.272587  0  0.956385  0  0  0.261765  0  1.018286  0  0  0.268411  0  1.013962  0  0  0.252862  0.256923  0  1.021555  0
H  H9  1  0.25456149  0.85695946  0.25291429  1  0  0.273762  0  0.955279  0  0  0.262905  0  1.017307  0  0  0.26959  0  1.012911  0  0  0.25307  0.258069  0  1.02047  0
H  H10  1  0.75456651  0.14305372  0.74707459  1  0  0.273821  0  0.955442  0  0  0.262946  0  1.017471  0  0  0.269625  0  1.013069  0  0  0.253135  0.258115  0  1.020629  0
H  H11  1  0.75482658  0.39592718  0.25291542  1  0  0.272335  0  0.956744  0  0  0.261585  0  1.018497  0  0  0.268233  0  1.014174  0  0  0.252801  0.256745  0  1.02176  0
H  H12  1  0.46398408  0.87969445  0.87753977  1  0  0.049159  0  0.930966  0  0  0.067836  0  0.993746  0  0  0.068361  0  0.99378  0  0  0.090364  0.067413  0  0.993793  0
H  H13  1  0.46302965  0.00250603  0.12237078  1  0  0.049581  0  0.929877  0  0  0.06787  0  0.992892  0  0  0.06847  0  0.992841  0  0  0.090238  0.067361  0  0.992997  0
H  H14  1  0.96298418  0.99749665  0.87762156  1  0  0.049662  0  0.92965  0  0  0.067929  0  0.992718  0  0  0.068531  0  0.992664  0  0  0.090322  0.067431  0  0.99282  0
H  H15  1  0.96391872  0.12028631  0.12246565  1  0  0.049125  0  0.930736  0  0  0.067821  0  0.993525  0  0  0.068339  0  0.993555  0  0  0.090351  0.067399  0  0.993567  0
H  H16  1  0.64266470  0.69160370  0.88116386  1  0  0.046818  0  0.930433  0  0  0.064024  0  0.996164  0  0  0.064611  0  0.995965  0  0  0.089796  0.063279  0  0.996771  0
H  H17  1  0.64226235  0.81126461  0.11877345  1  0  0.047515  0  0.930148  0  0  0.064127  0  0.996229  0  0  0.064749  0  0.996007  0  0  0.090165  0.063563  0  0.996437  0
H  H18  1  0.14222030  0.18874955  0.88123573  1  0  0.04749  0  0.930179  0  0  0.064169  0  0.996192  0  0  0.064786  0  0.995972  0  0  0.090238  0.063613  0  0.996404  0
H  H19  1  0.14262221  0.30838581  0.11882494  1  0  0.046795  0  0.930416  0  0  0.064009  0  0.996179  0  0  0.064585  0  0.995984  0  0  0.089754  0.063258  0  0.996791  0
H  H20  1  0.39934973  0.53208780  0.00004139  1  0  0.066415  0  0.935713  0  0  0.084425  0  0.99791  0  0  0.085562  0  0.997643  0  0  0.086657  0.083263  0  0.998252  0
H  H21  1  0.89926896  0.46790115  0.99996837  1  0  0.066602  0  0.935336  0  0  0.084469  0  0.997708  0  0  0.085602  0  0.99744  0  0  0.086657  0.083312  0  0.99805  0
H  H22  1  0.22442563  0.72735673  0.99972165  1  0  0.067739  0  0.93223  0  0  0.087603  0  0.990153  0  0  0.088737  0  0.990001  0  0  0.087589  0.086499  0  0.990424  0
H  H23  1  0.72437245  0.27260599  0.00028203  1  0  0.067781  0  0.931657  0  0  0.08757  0  0.989695  0  0  0.088709  0  0.989528  0  0  0.087587  0.086472  0  0.989962  0
C  C24  1  0.48153984  0.71867700  0.87914485  1  0  0.089961  0  3.675188  0  0  0.035261  0  3.939412  0  0  0.039322  0  3.953572  0  0  -0.080486  0.032219  0  3.929846  0
C  C25  1  0.48103363  0.83992112  0.12073857  1  0  0.087957  0  3.672976  0  0  0.034269  0  3.936289  0  0  0.038318  0  3.950394  0  0  -0.08132  0.031768  0  3.92617  0
C  C26  1  0.98099830  0.16008807  0.87925596  1  0  0.088075  0  3.673575  0  0  0.034327  0  3.93693  0  0  0.038374  0  3.951043  0  0  -0.081373  0.031802  0  3.926849  0
C  C27  1  0.98149074  0.28132445  0.12084634  1  0  0.089879  0  3.674122  0  0  0.035138  0  3.938494  0  0  0.039236  0  3.952605  0  0  -0.080436  0.032102  0  3.928927  0
C  C28  1  0.38469128  0.69420001  0.99987472  1  0  -0.175255  0  3.706384  0  0  -0.213687  0  3.967915  0  0  -0.216259  0  3.982761  0  0  -0.172033  -0.211623  0  3.95736  0
C  C29  1  0.88464611  0.30578148  0.00008511  1  0  -0.175318  0  3.705739  0  0  -0.213594  0  3.967352  0  0  -0.21618  0  3.982202  0  0  -0.172026  -0.211506  0  3.956748  0
Se  Se30  1  0.93054364  0.60315027  0.64205596  1  0  -0.832099  0  2.053275  0  0  -0.7026  0  2.484247  0  0  -0.74123  0  2.46232  0  0  -0.382242  -0.675907  0  2.498372  0
Se  Se31  1  0.93069290  0.96096056  0.35802812  1  0  -0.832987  0  2.055196  0  0  -0.703579  0  2.48664  0  0  -0.742234  0  2.464746  0  0  -0.38212  -0.676233  0  2.499772  0
Se  Se32  1  0.43068333  0.03903217  0.64197050  1  0  -0.832962  0  2.055003  0  0  -0.703562  0  2.486451  0  0  -0.742208  0  2.464548  0  0  -0.382129  -0.676216  0  2.499584  0
Se  Se33  1  0.43053730  0.39684561  0.35793869  1  0  -0.831977  0  2.053167  0  0  -0.702507  0  2.484104  0  0  -0.741128  0  2.462179  0  0  -0.38224  -0.675813  0  2.498235  0
N  N34  1  0.40437736  0.58102738  0.75701939  1  0  -0.600633  0  3.136655  0  0  -0.535689  0  3.370828  0  0  -0.556372  0  3.372274  0  0  -0.6399  -0.521388  0  3.369908  0
N  N35  1  0.40411358  0.82412434  0.24292063  1  0  -0.601683  0  3.13486  0  0  -0.536881  0  3.368788  0  0  -0.557568  0  3.370217  0  0  -0.639598  -0.52273  0  3.367104  0
N  N36  1  0.90408946  0.17590641  0.75711469  1  0  -0.601954  0  3.135587  0  0  -0.537171  0  3.369424  0  0  -0.557845  0  3.370847  0  0  -0.639829  -0.523015  0  3.367762  0
N  N37  1  0.90434949  0.41900022  0.24301988  1  0  -0.600457  0  3.136177  0  0  -0.53555  0  3.370522  0  0  -0.556253  0  3.371943  0  0  -0.639935  -0.521257  0  3.369605  0
