# generated using pymatgen
data_CdH16(C3N7)2
_symmetry_space_group_name_H-M   'P 1'
_cell_length_a   7.74590387
_cell_length_b   7.87173148
_cell_length_c   9.02374833
_cell_angle_alpha   65.15503440
_cell_angle_beta   66.28742968
_cell_angle_gamma   73.24727694
_symmetry_Int_Tables_number   1
_chemical_formula_structural   CdH16(C3N7)2
_chemical_formula_sum   'Cd1 H16 C6 N14'
_cell_volume   452.40022277
_cell_formula_units_Z   1
loop_
 _symmetry_equiv_pos_site_id
 _symmetry_equiv_pos_as_xyz
  1  'x, y, z'
loop_
 _atom_site_type_symbol
 _atom_site_label
 _atom_site_symmetry_multiplicity
 _atom_site_fract_x
 _atom_site_fract_y
 _atom_site_fract_z
 _atom_site_occupancy
 _atom_site_hle17_bader_spin_density
 _atom_site_hle17_ddec_charge
 _atom_site_hle17_ddec_spin_density
 _atom_site_hle17_ddec_sum_bond_order
 _atom_site_hle17_magmom
 _atom_site_hse06_10hf_bader_spin_density
 _atom_site_hse06_10hf_ddec_charge
 _atom_site_hse06_10hf_ddec_spin_density
 _atom_site_hse06_10hf_ddec_sum_bond_order
 _atom_site_hse06_10hf_magmom
 _atom_site_hse06_bader_spin_density
 _atom_site_hse06_ddec_charge
 _atom_site_hse06_ddec_spin_density
 _atom_site_hse06_ddec_sum_bond_order
 _atom_site_hse06_magmom
 _atom_site_pbe_bader_spin_density
 _atom_site_pbe_cm5_charge
 _atom_site_pbe_ddec_charge
 _atom_site_pbe_ddec_spin_density
 _atom_site_pbe_ddec_sum_bond_order
 _atom_site_pbe_magmom
Cd  Cd0  1  0.00000903  0.99999539  0.50000453  1  0  0.972945  0  1.770085  0  0  0.766105  0  2.221513  0  0  0.812605  0  2.184282  0  0  0.756453  0.733597  0  2.246632  0
H  H1  1  0.37577956  0.93385178  0.27783170  1  0  0.282896  0  0.948953  0  0  0.262026  0  1.027631  0  0  0.268655  0  1.021923  0  0  0.280791  0.257232  0  1.031793  0
H  H2  1  0.62423251  0.06614540  0.72215405  1  0  0.282884  0  0.949023  0  0  0.261976  0  1.027728  0  0  0.268605  0  1.022021  0  0  0.280763  0.257184  0  1.031887  0
H  H3  1  0.84660305  0.24519844  0.22769429  1  0  0.27936  0  0.896016  0  0  0.27879  0  0.934988  0  0  0.283265  0  0.933526  0  0  0.294101  0.275555  0  0.936186  0
H  H4  1  0.15339315  0.75479720  0.77232497  1  0  0.279243  0  0.896115  0  0  0.278679  0  0.935087  0  0  0.283154  0  0.933624  0  0  0.294059  0.275445  0  0.936281  0
H  H5  1  0.24414868  0.79480346  0.28493390  1  0  0.293623  0  0.912628  0  0  0.279169  0  0.974716  0  0  0.286402  0  0.968466  0  0  0.290735  0.273956  0  0.979294  0
H  H6  1  0.75585085  0.20519215  0.71505986  1  0  0.293674  0  0.912609  0  0  0.27919  0  0.974723  0  0  0.286422  0  0.968476  0  0  0.290752  0.273977  0  0.979302  0
H  H7  1  0.23455257  0.31587951  0.13912935  1  0  0.061221  0  0.900977  0  0  0.083887  0  0.950926  0  0  0.083837  0  0.951649  0  0  0.105054  0.083794  0  0.950571  0
H  H8  1  0.76545216  0.68411872  0.86086514  1  0  0.061228  0  0.900975  0  0  0.08389  0  0.950931  0  0  0.083839  0  0.951655  0  0  0.105052  0.083794  0  0.950584  0
H  H9  1  0.91565378  0.38991128  0.27744647  1  0  0.28091  0  0.977595  0  0  0.25318  0  1.066438  0  0  0.260992  0  1.060256  0  0  0.276135  0.24765  0  1.070746  0
H  H10  1  0.08435095  0.61008465  0.72256432  1  0  0.280907  0  0.977495  0  0  0.253167  0  1.066356  0  0  0.260979  0  1.060176  0  0  0.27614  0.247636  0  1.070664  0
H  H11  1  0.11579445  0.01232762  0.08409682  1  0  0.05831  0  0.917259  0  0  0.075887  0  0.978017  0  0  0.076284  0  0.978684  0  0  0.102341  0.075504  0  0.977677  0
H  H12  1  0.88419157  0.98767132  0.91591697  1  0  0.058308  0  0.917294  0  0  0.075864  0  0.978046  0  0  0.076262  0  0.978713  0  0  0.102347  0.075482  0  0.977707  0
H  H13  1  0.12035848  0.35760629  0.98852399  1  0  0.052209  0  0.965068  0  0  0.06327  0  1.038948  0  0  0.064302  0  1.038135  0  0  0.096505  0.062427  0  1.039651  0
H  H14  1  0.87962884  0.64238454  0.01148539  1  0  0.052177  0  0.965192  0  0  0.063304  0  1.038998  0  0  0.064338  0  1.038184  0  0  0.096494  0.062458  0  1.039704  0
H  H15  1  0.34744932  0.07487046  0.99260442  1  0  0.0495  0  0.94387  0  0  0.066942  0  1.007454  0  0  0.067215  0  1.007756  0  0  0.09491  0.066643  0  1.007373  0
H  H16  1  0.65253265  0.92512931  0.00739601  1  0  0.049515  0  0.943942  0  0  0.066911  0  1.007532  0  0  0.067181  0  1.007838  0  0  0.094915  0.066613  0  1.007451  0
C  C17  1  0.33025871  0.16514899  0.58642289  1  0  0.343044  0  3.876735  0  0  0.313084  0  4.16335  0  0  0.318324  0  4.184237  0  0  0.290488  0.309579  0  4.149236  0
C  C18  1  0.66974168  0.83485870  0.41357770  1  0  0.342982  0  3.87685  0  0  0.313072  0  4.163386  0  0  0.318312  0  4.184272  0  0  0.2904  0.309567  0  4.14927  0
C  C19  1  0.13514468  0.26301113  0.11480000  1  0  0.052847  0  3.659053  0  0  -0.002941  0  3.926635  0  0  0.0008  0  3.939407  0  0  -0.078422  -0.005367  0  3.917774  0
C  C20  1  0.86485451  0.73698526  0.88520471  1  0  0.052848  0  3.659263  0  0  -0.002984  0  3.926776  0  0  0.000756  0  3.939548  0  0  -0.078427  -0.00541  0  3.917915  0
C  C21  1  0.21768853  0.06478382  0.10587243  1  0  0.063352  0  3.661794  0  0  0.006366  0  3.930811  0  0  0.009709  0  3.944786  0  0  -0.078722  0.004187  0  3.921094  0
C  C22  1  0.78230166  0.93521716  0.89412822  1  0  0.063221  0  3.662082  0  0  0.006324  0  3.931013  0  0  0.009666  0  3.944991  0  0  -0.078744  0.00414  0  3.921307  0
N  N23  1  0.15970775  0.17830060  0.56975835  1  0  -0.344755  0  3.083349  0  0  -0.290878  0  3.368436  0  0  -0.306016  0  3.386812  0  0  -0.223276  -0.280602  0  3.355918  0
N  N24  1  0.84029494  0.82170182  0.43023656  1  0  -0.344686  0  3.083482  0  0  -0.290833  0  3.368552  0  0  -0.305972  0  3.38693  0  0  -0.223232  -0.280558  0  3.356032  0
N  N25  1  0.31944201  0.28109420  0.66670423  1  0  -0.312303  0  2.914857  0  0  -0.298867  0  3.192139  0  0  -0.30633  0  3.205072  0  0  -0.219901  -0.293684  0  3.183339  0
N  N26  1  0.68056846  0.71892423  0.33327393  1  0  -0.312238  0  2.914665  0  0  -0.298797  0  3.191921  0  0  -0.306265  0  3.204856  0  0  -0.219793  -0.293613  0  3.183121  0
N  N27  1  0.13961175  0.36629314  0.69874060  1  0  -0.101591  0  3.038302  0  0  -0.073955  0  3.339478  0  0  -0.077928  0  3.351316  0  0  -0.093802  -0.071028  0  3.331311  0
N  N28  1  0.86039635  0.63371054  0.30125431  1  0  -0.101652  0  3.03826  0  0  -0.074047  0  3.339486  0  0  -0.078017  0  3.35132  0  0  -0.093867  -0.07112  0  3.331322  0
N  N29  1  0.04272914  0.30428270  0.64161695  1  0  -0.087509  0  2.969803  0  0  -0.087862  0  3.270424  0  0  -0.0881  0  3.283094  0  0  -0.10078  -0.087416  0  3.261826  0
N  N30  1  0.95727408  0.69571510  0.35838596  1  0  -0.087524  0  2.969695  0  0  -0.087869  0  3.270323  0  0  -0.088109  0  3.282993  0  0  -0.10079  -0.087423  0  3.261726  0
N  N31  1  0.49992177  0.05040819  0.53995024  1  0  -0.17756  0  3.033524  0  0  -0.149965  0  3.31309  0  0  -0.147146  0  3.315655  0  0  -0.145045  -0.151728  0  3.311404  0
N  N32  1  0.50008005  0.94962164  0.46002593  1  0  -0.17753  0  3.03354  0  0  -0.149951  0  3.313095  0  0  -0.147131  0  3.315658  0  0  -0.144942  -0.151714  0  3.311409  0
N  N33  1  0.25020343  0.93014698  0.26771689  1  0  -0.646188  0  3.153295  0  0  -0.58649  0  3.402936  0  0  -0.606136  0  3.40207  0  0  -0.636693  -0.572655  0  3.403294  0
N  N34  1  0.74979723  0.06984966  0.73228281  1  0  -0.646133  0  3.153477  0  0  -0.586374  0  3.403129  0  0  -0.606022  0  3.402261  0  0  -0.63666  -0.572538  0  3.403488  0
N  N35  1  0.95356910  0.26202748  0.25708828  1  0  -0.633844  0  3.115324  0  0  -0.574708  0  3.36876  0  0  -0.594437  0  3.368381  0  0  -0.632696  -0.560855  0  3.368675  0
N  N36  1  0.04643300  0.73796699  0.74292498  1  0  -0.633692  0  3.115358  0  0  -0.574564  0  3.368818  0  0  -0.594295  0  3.368437  0  0  -0.632646  -0.560709  0  3.368732  0
