# generated using pymatgen
data_UH10(C4O3)2
_symmetry_space_group_name_H-M   'P 1'
_cell_length_a   5.31800487
_cell_length_b   6.77675221
_cell_length_c   7.38495448
_cell_angle_alpha   89.37675707
_cell_angle_beta   90.30229335
_cell_angle_gamma   105.06795346
_symmetry_Int_Tables_number   1
_chemical_formula_structural   UH10(C4O3)2
_chemical_formula_sum   'U1 H10 C8 O6'
_cell_volume   256.97833151
_cell_formula_units_Z   1
loop_
 _symmetry_equiv_pos_site_id
 _symmetry_equiv_pos_as_xyz
  1  'x, y, z'
loop_
 _atom_site_type_symbol
 _atom_site_label
 _atom_site_symmetry_multiplicity
 _atom_site_fract_x
 _atom_site_fract_y
 _atom_site_fract_z
 _atom_site_occupancy
 _atom_site_hle17_bader_spin_density
 _atom_site_hle17_ddec_charge
 _atom_site_hle17_ddec_spin_density
 _atom_site_hle17_ddec_sum_bond_order
 _atom_site_hle17_magmom
 _atom_site_hse06_10hf_bader_spin_density
 _atom_site_hse06_10hf_ddec_charge
 _atom_site_hse06_10hf_ddec_spin_density
 _atom_site_hse06_10hf_ddec_sum_bond_order
 _atom_site_hse06_10hf_magmom
 _atom_site_hse06_bader_spin_density
 _atom_site_hse06_ddec_charge
 _atom_site_hse06_ddec_spin_density
 _atom_site_hse06_ddec_sum_bond_order
 _atom_site_hse06_magmom
 _atom_site_pbe_bader_spin_density
 _atom_site_pbe_cm5_charge
 _atom_site_pbe_ddec_charge
 _atom_site_pbe_ddec_spin_density
 _atom_site_pbe_ddec_sum_bond_order
 _atom_site_pbe_magmom
U  U0  1  0.99999303  0.99999867  0.99998583  1  0  2.508005  0  4.19563  0  0  2.565332  0  4.877971  0  0  2.681565  0  4.830329  0  0  2.237691  2.482022  0  4.91342  0
H  H1  1  0.19552979  0.49646926  0.65552706  1  0  0.098356  0  0.918952  0  0  0.115338  0  0.968803  0  0  0.116679  0  0.969213  0  0  0.113089  0.114439  0  0.968622  0
H  H2  1  0.80447759  0.50353386  0.34447117  1  0  0.098439  0  0.918983  0  0  0.115403  0  0.968838  0  0  0.116745  0  0.969244  0  0  0.1131  0.114506  0  0.96866  0
H  H3  1  0.78718134  0.56260824  0.68537215  1  0  0.069109  0  0.947919  0  0  0.084497  0  1.015929  0  0  0.085871  0  1.015319  0  0  0.095146  0.083481  0  1.016332  0
H  H4  1  0.21282084  0.43739636  0.31462735  1  0  0.069154  0  0.94791  0  0  0.084552  0  1.015928  0  0  0.085928  0  1.015315  0  0  0.095169  0.083536  0  1.016328  0
H  H5  1  0.55280406  0.38950362  0.81804177  1  0  0.079836  0  0.946519  0  0  0.09532  0  1.009535  0  0  0.096461  0  1.009579  0  0  0.100901  0.094494  0  1.009587  0
H  H6  1  0.44720900  0.61050558  0.18195924  1  0  0.079845  0  0.946538  0  0  0.09538  0  1.009514  0  0  0.096498  0  1.009597  0  0  0.100909  0.094561  0  1.009555  0
H  H7  1  0.36354189  0.19659615  0.54389449  1  0  0.074207  0  0.928311  0  0  0.09318  0  0.98826  0  0  0.094081  0  0.988476  0  0  0.098244  0.092485  0  0.988232  0
H  H8  1  0.63644946  0.80340991  0.45610620  1  0  0.074137  0  0.928255  0  0  0.093196  0  0.988178  0  0  0.094101  0  0.988386  0  0  0.098266  0.092505  0  0.988152  0
H  H9  1  0.70139564  0.21200550  0.56296006  1  0  0.084147  0  0.941523  0  0  0.102255  0  1.001003  0  0  0.10363  0  1.000577  0  0  0.097414  0.101257  0  1.001433  0
H  H10  1  0.29861255  0.78799452  0.43704089  1  0  0.08412  0  0.941504  0  0  0.102261  0  1.001016  0  0  0.103638  0  1.000584  0  0  0.097426  0.101261  0  1.001448  0
C  C11  1  0.40981805  0.75471519  0.79349150  1  0  0.764494  0  3.706142  0  0  0.737752  0  3.990396  0  0  0.779589  0  3.974396  0  0  0.275148  0.708697  0  4.000564  0
C  C12  1  0.59015722  0.24527565  0.20650219  1  0  0.764466  0  3.706528  0  0  0.737742  0  3.990726  0  0  0.779555  0  3.974768  0  0  0.275134  0.70866  0  4.000933  0
C  C13  1  0.39627179  0.59499620  0.65086312  1  0  -0.136861  0  3.637531  0  0  -0.139228  0  3.868349  0  0  -0.147217  0  3.883114  0  0  -0.081989  -0.133895  0  3.858408  0
C  C14  1  0.60373619  0.40500851  0.34913105  1  0  -0.136966  0  3.637414  0  0  -0.139353  0  3.868173  0  0  -0.147334  0  3.882936  0  0  -0.082011  -0.134007  0  3.858235  0
C  C15  1  0.58694117  0.46387999  0.68445968  1  0  -0.110494  0  3.666097  0  0  -0.156163  0  3.927475  0  0  -0.155975  0  3.940487  0  0  -0.15976  -0.156017  0  3.918274  0
C  C16  1  0.41306428  0.53612309  0.31553988  1  0  -0.110564  0  3.665924  0  0  -0.156281  0  3.927456  0  0  -0.156089  0  3.940465  0  0  -0.1598  -0.156126  0  3.918244  0
C  C17  1  0.56001571  0.30199014  0.53820179  1  0  -0.111086  0  3.634052  0  0  -0.157947  0  3.894713  0  0  -0.158648  0  3.908921  0  0  -0.155022  -0.157289  0  3.88473  0
C  C18  1  0.43998980  0.69800817  0.46180996  1  0  -0.110835  0  3.633857  0  0  -0.157909  0  3.894772  0  0  -0.158604  0  3.908973  0  0  -0.154992  -0.157247  0  3.884793  0
O  O19  1  0.99830592  0.18658437  0.82330106  1  0  -0.700884  0  1.542875  0  0  -0.708024  0  1.827064  0  0  -0.731764  0  1.813012  0  0  -0.751381  -0.693044  0  1.837616  0
O  O20  1  0.00169174  0.81340520  0.17668214  1  0  -0.701079  0  1.542726  0  0  -0.708215  0  1.826919  0  0  -0.731957  0  1.812867  0  0  -0.751365  -0.693237  0  1.837475  0
O  O21  1  0.21925605  0.83533199  0.80727372  1  0  -0.673518  0  2.041811  0  0  -0.667649  0  2.320321  0  0  -0.704373  0  2.309542  0  0  -0.370672  -0.6408  0  2.326497  0
O  O22  1  0.78076156  0.16470185  0.19271379  1  0  -0.673498  0  2.041447  0  0  -0.667647  0  2.31994  0  0  -0.704371  0  2.309176  0  0  -0.370711  -0.640783  0  2.32613  0
O  O23  1  0.61015703  0.80749932  0.89575014  1  0  -0.691346  0  2.095828  0  0  -0.681972  0  2.385785  0  0  -0.719098  0  2.374494  0  0  -0.380006  -0.654797  0  2.392099  0
O  O24  1  0.38982591  0.19246636  0.10429246  1  0  -0.691183  0  2.096436  0  0  -0.68182  0  2.386397  0  0  -0.718914  0  2.375079  0  0  -0.379929  -0.654662  0  2.392778  0
