# generated using pymatgen
data_CoPH5C4(NO2)2
_symmetry_space_group_name_H-M   'P 1'
_cell_length_a   5.24142317
_cell_length_b   6.97220716
_cell_length_c   10.27394817
_cell_angle_alpha   105.27720931
_cell_angle_beta   90.01679499
_cell_angle_gamma   112.08187376
_symmetry_Int_Tables_number   1
_chemical_formula_structural   CoPH5C4(NO2)2
_chemical_formula_sum   'Co2 P2 H10 C8 N4 O8'
_cell_volume   333.54000942
_cell_formula_units_Z   2
loop_
 _symmetry_equiv_pos_site_id
 _symmetry_equiv_pos_as_xyz
  1  'x, y, z'
loop_
 _atom_site_type_symbol
 _atom_site_label
 _atom_site_symmetry_multiplicity
 _atom_site_fract_x
 _atom_site_fract_y
 _atom_site_fract_z
 _atom_site_occupancy
 _atom_site_hle17_ddec_charge
 _atom_site_hle17_ddec_spin_density
 _atom_site_hle17_ddec_sum_bond_order
 _atom_site_hle17_magmom
 _atom_site_hse06_10hf_ddec_charge
 _atom_site_hse06_10hf_ddec_spin_density
 _atom_site_hse06_10hf_ddec_sum_bond_order
 _atom_site_hse06_10hf_magmom
 _atom_site_hse06_ddec_charge
 _atom_site_hse06_ddec_spin_density
 _atom_site_hse06_ddec_sum_bond_order
 _atom_site_hse06_magmom
 _atom_site_pbe_cm5_charge
 _atom_site_pbe_ddec_charge
 _atom_site_pbe_ddec_spin_density
 _atom_site_pbe_ddec_sum_bond_order
 _atom_site_pbe_magmom
Co  Co0  1  0.65918751  0.67965055  0.10265757  1  1.059915  2.846391  1.950249  2.616  1.021019  2.850919  2.3404  2.67  1.08314  2.881459  2.278853  2.732  0.688147  0.974346  2.830917  2.387114  2.618
Co  Co1  1  0.02057045  0.67948994  0.60264656  1  1.060661  2.84818  1.950913  2.616  1.021933  2.853122  2.34079  2.672  1.083327  2.881897  2.27912  2.732  0.688482  0.974568  2.831696  2.38739  2.618
P  P2  1  0.20845790  0.71980040  0.92700681  1  1.430814  0.005876  4.896952  0.006  1.276353  0.010984  5.403111  0.011  1.330408  0.00789  5.368423  0.009  0.349721  1.237739  0.014233  5.421717  0.013
P  P3  1  0.51127880  0.71972455  0.42701204  1  1.431338  0.005839  4.897809  0.006  1.2759  0.010967  5.405975  0.011  1.329675  0.007869  5.371937  0.009  0.349353  1.237366  0.014254  5.424444  0.013
H  H4  1  0.96788083  0.81299360  0.33428531  1  0.408828  -0.000919  0.905803  -0.001  0.381293  -0.000436  0.971545  0.0  0.391888  -0.000555  0.956419  0.0  0.289104  0.373819  -0.00024  0.981946  0.0
H  H5  1  0.84526887  0.81306618  0.83418068  1  0.409338  -0.000922  0.905497  -0.001  0.381794  -0.000439  0.970985  0.0  0.392368  -0.000557  0.955869  0.0  0.289341  0.374338  -0.000239  0.981357  0.0
H  H6  1  0.20933341  0.81572123  0.24530023  1  0.419265  -0.000218  0.879285  0.0  0.392987  0.000106  0.945775  0.001  0.402904  -7.3e-05  0.931641  0.0  0.292641  0.386081  0.000316  0.955454  0.001
H  H7  1  0.60659151  0.81577056  0.74515909  1  0.418633  -0.00022  0.880583  0.0  0.392809  0.000102  0.945984  0.001  0.402664  -7.5e-05  0.931917  0.0  0.292457  0.385893  0.000315  0.955697  0.001
H  H8  1  0.28011269  0.19525420  0.96987754  1  0.103384  0.000478  0.932614  0.001  0.109973  0.000475  0.998317  0.001  0.113333  0.000337  0.995606  0.001  0.126361  0.106904  0.000533  1.001681  0.001
H  H9  1  0.91454353  0.19511673  0.46957045  1  0.103731  0.000465  0.932064  0.001  0.110539  0.000439  0.997599  0.001  0.113959  0.00031  0.994839  0.001  0.126568  0.107393  0.000528  1.001007  0.001
H  H10  1  0.01349886  0.51070250  0.22961647  1  0.097424  0.000286  1.006634  0.001  0.1022  0.000205  1.072067  0.001  0.106653  -8e-06  1.067823  0.001  0.124589  0.098058  0.000456  1.076333  0.001
H  H11  1  0.49704464  0.51048103  0.72943653  1  0.097266  0.000303  1.006416  0.001  0.102433  0.0002  1.071551  0.001  0.106746  -1.4e-05  1.067494  0.001  0.124874  0.098423  0.000457  1.075638  0.001
H  H12  1  0.02194478  0.15803884  0.23476767  1  0.108867  0.000574  0.946585  0.002  0.113865  0.000436  1.010675  0.001  0.11777  0.000303  1.007375  0.001  0.123176  0.110728  0.000537  1.013838  0.001
H  H13  1  0.13613813  0.15788134  0.73459598  1  0.108459  0.000585  0.946693  0.002  0.11364  0.000429  1.010723  0.001  0.117572  0.000296  1.007395  0.001  0.122976  0.110508  0.000532  1.013867  0.001
C  C14  1  0.45428694  0.98600362  0.02763991  1  -0.092184  -0.00625  3.649352  -0.002  -0.062465  -0.001976  3.892278  0.0  -0.064729  -0.001927  3.904795  0.0  0.108732  -0.063692  -0.003963  3.889294  0.001
C  C15  1  0.53162859  0.98587068  0.52761316  1  -0.092031  -0.006132  3.650493  -0.001  -0.062445  -0.00207  3.893163  0.001  -0.06446  -0.001952  3.905079  0.0  0.108695  -0.063804  -0.004002  3.890147  0.001
C  C16  1  0.44626044  0.18462383  0.02784605  1  0.120112  -0.005917  3.611746  -0.002  0.085217  -0.001727  3.864217  0.0  0.091284  0.000568  3.876236  0.001  0.064932  0.078748  -0.006167  3.862796  -0.001
C  C17  1  0.73806275  0.18450969  0.52768947  1  0.11992  -0.006774  3.611969  -0.002  0.08492  -0.002196  3.863452  0.0  0.091115  0.000462  3.875037  0.001  0.064678  0.078628  -0.006382  3.861782  -0.002
C  C18  1  0.84928143  0.36190040  0.17276936  1  0.112295  -0.006148  3.631094  -0.002  0.083153  -0.001776  3.884813  0.0  0.090178  -0.000583  3.893374  0.001  0.058195  0.076276  -0.004753  3.884478  0.0
C  C19  1  0.51252941  0.36175227  0.67255682  1  0.112788  -0.007031  3.633711  -0.002  0.0832  -0.002153  3.887534  0.0  0.090505  -0.00066  3.895765  0.001  0.057969  0.076343  -0.004939  3.886761  0.0
C  C20  1  0.85693888  0.16656240  0.17504007  1  0.085709  -0.012077  3.632049  -0.006  0.060976  -0.005688  3.888206  -0.002  0.06391  -0.003661  3.900159  -0.002  0.056403  0.05641  -0.010545  3.886239  -0.004
C  C21  1  0.30969250  0.16640276  0.67492104  1  0.085813  -0.012726  3.632765  -0.006  0.060714  -0.006228  3.889031  -0.002  0.063886  -0.003768  3.900408  -0.002  0.056023  0.056253  -0.01082  3.886758  -0.004
N  N22  1  0.66059509  0.97891171  0.10264687  1  -0.249105  0.024555  3.340664  0.052  -0.210447  0.020208  3.604932  0.038  -0.221303  0.018244  3.61643  0.035  -0.309286  -0.205856  0.01897  3.602163  0.037
N  N23  1  0.31829711  0.97872962  0.60261844  1  -0.250381  0.023682  3.341621  0.051  -0.210773  0.01987  3.604933  0.038  -0.221194  0.018227  3.61573  0.035  -0.309063  -0.205828  0.018656  3.601706  0.037
N  N24  1  0.64424050  0.37352445  0.10023674  1  -0.265658  0.018391  3.240477  0.04  -0.221687  0.015871  3.525377  0.028  -0.233886  0.014684  3.530346  0.025  -0.305232  -0.216478  0.013129  3.527119  0.026
N  N25  1  0.72911073  0.37344140  0.60005135  1  -0.267909  0.017725  3.242978  0.04  -0.222809  0.015532  3.526625  0.028  -0.234723  0.01467  3.531055  0.025  -0.305491  -0.21722  0.012833  3.52774  0.026
O  O26  1  0.29204055  0.56114975  0.97672341  1  -0.802591  0.042541  1.956096  0.076  -0.757118  0.032252  2.245994  0.053  -0.794557  0.0232  2.229931  0.039  -0.364453  -0.723919  0.043126  2.252867  0.069
O  O27  1  0.26894423  0.56102050  0.47665221  1  -0.803438  0.042977  1.95616  0.076  -0.757232  0.032502  2.245666  0.053  -0.794819  0.023279  2.229878  0.039  -0.36476  -0.724154  0.043272  2.252634  0.069
O  O28  1  0.25600723  0.71526179  0.77826047  1  -0.857506  0.036416  2.09988  0.063  -0.79163  0.030319  2.37439  0.047  -0.829785  0.022713  2.35784  0.035  -0.363977  -0.759505  0.039458  2.382919  0.062
O  O29  1  0.45949679  0.71538527  0.27826699  1  -0.858279  0.036297  2.100857  0.063  -0.791448  0.03023  2.375051  0.047  -0.829732  0.02267  2.358827  0.035  -0.363884  -0.759279  0.039375  2.383425  0.061
O  O30  1  0.91392173  0.70881118  0.95030672  1  -0.848659  0.034056  2.12554  0.06  -0.785791  0.028589  2.407188  0.045  -0.823655  0.021514  2.390314  0.034  -0.363216  -0.753951  0.037211  2.415091  0.059
O  O31  1  0.79469127  0.70860184  0.45041523  1  -0.847905  0.034347  2.125936  0.061  -0.785377  0.028813  2.408207  0.045  -0.823257  0.021627  2.391444  0.034  -0.362603  -0.75346  0.037418  2.416053  0.059
O  O32  1  0.04436874  0.85407506  0.25153699  1  -0.829543  0.022622  1.908635  0.041  -0.797733  0.021008  2.115841  0.034  -0.82339  0.015799  2.085875  0.027  -0.575718  -0.775669  0.026901  2.135327  0.043
O  O33  1  0.80991051  0.85411694  0.75139308  1  -0.829372  0.022751  1.909724  0.041  -0.797966  0.021111  2.115558  0.035  -0.823794  0.015818  2.086036  0.027  -0.575732  -0.776006  0.026928  2.135083  0.043
