# generated using pymatgen
data_HgH4C6Br2N
_symmetry_space_group_name_H-M   'P 1'
_cell_length_a   4.05834187
_cell_length_b   9.69456227
_cell_length_c   11.21819006
_cell_angle_alpha   71.29758660
_cell_angle_beta   80.12565751
_cell_angle_gamma   79.67538133
_symmetry_Int_Tables_number   1
_chemical_formula_structural   HgH4C6Br2N
_chemical_formula_sum   'Hg2 H8 C12 Br4 N2'
_cell_volume   408.20162758
_cell_formula_units_Z   2
loop_
 _symmetry_equiv_pos_site_id
 _symmetry_equiv_pos_as_xyz
  1  'x, y, z'
loop_
 _atom_site_type_symbol
 _atom_site_label
 _atom_site_symmetry_multiplicity
 _atom_site_fract_x
 _atom_site_fract_y
 _atom_site_fract_z
 _atom_site_occupancy
 _atom_site_hle17_bader_spin_density
 _atom_site_hle17_ddec_charge
 _atom_site_hle17_ddec_spin_density
 _atom_site_hle17_ddec_sum_bond_order
 _atom_site_hle17_magmom
 _atom_site_hse06_10hf_bader_spin_density
 _atom_site_hse06_10hf_ddec_charge
 _atom_site_hse06_10hf_ddec_spin_density
 _atom_site_hse06_10hf_ddec_sum_bond_order
 _atom_site_hse06_10hf_magmom
 _atom_site_hse06_bader_spin_density
 _atom_site_hse06_ddec_charge
 _atom_site_hse06_ddec_spin_density
 _atom_site_hse06_ddec_sum_bond_order
 _atom_site_hse06_magmom
 _atom_site_pbe_bader_spin_density
 _atom_site_pbe_cm5_charge
 _atom_site_pbe_ddec_charge
 _atom_site_pbe_ddec_spin_density
 _atom_site_pbe_ddec_sum_bond_order
 _atom_site_pbe_magmom
Hg  Hg0  1  0.70815672  0.78956931  0.63652062  1  0  0.625302  0  2.109137  0  0  0.491395  0  2.603942  0  0  0.540179  0  2.571506  0  0  0.408149  0.458389  0  2.625927  0
Hg  Hg1  1  0.29188153  0.21042571  0.36347737  1  0  0.625397  0  2.109125  0  0  0.491479  0  2.603969  0  0  0.540261  0  2.571527  0  0  0.408148  0.458473  0  2.625953  0
H  H2  1  0.73199815  0.45726412  0.70090314  1  0  0.097048  0  0.992927  0  0  0.102041  0  1.066867  0  0  0.10538  0  1.064514  0  0  0.082009  0.099745  0  1.0683  0
H  H3  1  0.26802156  0.54273416  0.29909510  1  0  0.097043  0  0.993004  0  0  0.102024  0  1.066952  0  0  0.105362  0  1.064598  0  0  0.082027  0.099729  0  1.068381  0
H  H4  1  0.73802894  0.92250934  0.07010562  1  0  0.091735  0  0.952423  0  0  0.102598  0  1.012815  0  0  0.105155  0  1.012185  0  0  0.097535  0.100646  0  1.013538  0
H  H5  1  0.26194564  0.07751304  0.92989500  1  0  0.091668  0  0.952756  0  0  0.10254  0  1.013128  0  0  0.105102  0  1.012485  0  0  0.097465  0.100571  0  1.013874  0
H  H6  1  0.54273010  0.22004141  0.72359582  1  0  0.090824  0  0.979779  0  0  0.096332  0  1.051235  0  0  0.099765  0  1.048903  0  0  0.08135  0.093805  0  1.053018  0
H  H7  1  0.45725573  0.77996120  0.27640867  1  0  0.090835  0  0.979823  0  0  0.096314  0  1.051319  0  0  0.09975  0  1.04898  0  0  0.081336  0.093787  0  1.0531  0
H  H8  1  0.81893793  0.83263083  0.88149645  1  0  0.092548  0  1.002166  0  0  0.099666  0  1.075372  0  0  0.10294  0  1.072989  0  0  0.080826  0.097183  0  1.077325  0
H  H9  1  0.18106339  0.16738611  0.11849777  1  0  0.092553  0  1.002229  0  0  0.099647  0  1.075448  0  0  0.102932  0  1.073053  0  0  0.080884  0.097165  0  1.077392  0
C  C10  1  0.55362251  0.45269377  0.89513349  1  0  0.180568  0  3.758407  0  0  0.179933  0  3.999524  0  0  0.184833  0  4.020834  0  0  0.117143  0.176408  0  3.985263  0
C  C11  1  0.44639547  0.54731000  0.10486512  1  0  0.180576  0  3.758512  0  0  0.180056  0  3.999405  0  0  0.184956  0  4.020706  0  0  0.117219  0.176531  0  3.985144  0
C  C12  1  0.59637732  0.63364666  0.98261563  1  0  0.179195  0  3.764295  0  0  0.178169  0  4.006512  0  0  0.183266  0  4.027924  0  0  0.114876  0.174455  0  3.992236  0
C  C13  1  0.40361351  0.36635597  0.01738409  1  0  0.179169  0  3.764111  0  0  0.178111  0  4.00647  0  0  0.183204  0  4.027887  0  0  0.114865  0.174401  0  3.992185  0
C  C14  1  0.60693543  0.39478550  0.79080696  1  0  -0.131756  0  3.725918  0  0  -0.149257  0  3.972626  0  0  -0.154133  0  3.99496  0  0  -0.093576  -0.145921  0  3.957294  0
C  C15  1  0.39308533  0.60520948  0.20919747  1  0  -0.131708  0  3.725835  0  0  -0.149197  0  3.972441  0  0  -0.154074  0  3.994786  0  0  -0.093547  -0.145858  0  3.957101  0
C  C16  1  0.65390544  0.81922658  0.07714496  1  0  -0.039249  0  3.741171  0  0  -0.051266  0  3.985712  0  0  -0.052234  0  4.007943  0  0  -0.08252  -0.050541  0  3.970631  0
C  C17  1  0.34605220  0.18077818  0.92285712  1  0  -0.039072  0  3.741325  0  0  -0.051094  0  3.985799  0  0  -0.05206  0  4.008031  0  0  -0.082519  -0.050359  0  3.970729  0
C  C18  1  0.50439201  0.26265234  0.80446743  1  0  -0.040411  0  3.7312  0  0  -0.054425  0  3.977425  0  0  -0.056342  0  3.999003  0  0  -0.087227  -0.052863  0  3.962588  0
C  C19  1  0.49559423  0.73735686  0.19553967  1  0  -0.040396  0  3.731148  0  0  -0.054413  0  3.977408  0  0  -0.056332  0  3.998987  0  0  -0.087307  -0.052851  0  3.962569  0
C  C20  1  0.69921417  0.77017602  0.97270751  1  0  -0.148314  0  3.72843  0  0  -0.167815  0  3.978127  0  0  -0.173473  0  4.000447  0  0  -0.098662  -0.163767  0  3.963103  0
C  C21  1  0.30077812  0.22982991  0.02728675  1  0  -0.148319  0  3.728396  0  0  -0.167769  0  3.978088  0  0  -0.173435  0  4.000396  0  0  -0.098643  -0.163716  0  3.963047  0
Br  Br22  1  0.24502421  0.98159821  0.68313577  1  0  -0.350121  0  1.207952  0  0  -0.289265  0  1.542569  0  0  -0.31094  0  1.523592  0  0  -0.171571  -0.274129  0  1.55566  0
Br  Br23  1  0.75495802  0.01836040  0.31688912  1  0  -0.350173  0  1.207915  0  0  -0.28929  0  1.542468  0  0  -0.310965  0  1.523491  0  0  -0.171617  -0.274175  0  1.555596  0
Br  Br24  1  0.21092894  0.65136336  0.54177380  1  0  -0.309722  0  1.249198  0  0  -0.250331  0  1.590784  0  0  -0.271189  0  1.571449  0  0  -0.158481  -0.23624  0  1.604282  0
Br  Br25  1  0.78906662  0.34860852  0.45820826  1  0  -0.309697  0  1.249346  0  0  -0.25032  0  1.591004  0  0  -0.271177  0  1.571668  0  0  -0.158444  -0.236236  0  1.604505  0
N  N26  1  0.64388623  0.58496995  0.88031091  1  0  -0.337708  0  3.083538  0  0  -0.287854  0  3.342694  0  0  -0.30329  0  3.360338  0  0  -0.289822  -0.27724  0  3.330422  0
N  N27  1  0.35614890  0.41503495  0.11968721  1  0  -0.337817  0  3.083513  0  0  -0.288008  0  3.342701  0  0  -0.30344  0  3.360338  0  0  -0.289895  -0.277391  0  3.330417  0
