# generated using pymatgen
data_CuH10Au2C12(N2Cl)4
_symmetry_space_group_name_H-M   'P 1'
_cell_length_a   6.85094006
_cell_length_b   10.17036121
_cell_length_c   10.67064262
_cell_angle_alpha   82.44363453
_cell_angle_beta   71.24366973
_cell_angle_gamma   70.24780628
_symmetry_Int_Tables_number   1
_chemical_formula_structural   CuH10Au2C12(N2Cl)4
_chemical_formula_sum   'Cu1 H10 Au2 C12 N8 Cl4'
_cell_volume   662.37057717
_cell_formula_units_Z   1
loop_
 _symmetry_equiv_pos_site_id
 _symmetry_equiv_pos_as_xyz
  1  'x, y, z'
loop_
 _atom_site_type_symbol
 _atom_site_label
 _atom_site_symmetry_multiplicity
 _atom_site_fract_x
 _atom_site_fract_y
 _atom_site_fract_z
 _atom_site_occupancy
 _atom_site_hle17_ddec_charge
 _atom_site_hle17_ddec_spin_density
 _atom_site_hle17_ddec_sum_bond_order
 _atom_site_hle17_magmom
 _atom_site_hse06_10hf_ddec_charge
 _atom_site_hse06_10hf_ddec_spin_density
 _atom_site_hse06_10hf_ddec_sum_bond_order
 _atom_site_hse06_10hf_magmom
 _atom_site_hse06_ddec_charge
 _atom_site_hse06_ddec_spin_density
 _atom_site_hse06_ddec_sum_bond_order
 _atom_site_hse06_magmom
 _atom_site_pbe_cm5_charge
 _atom_site_pbe_ddec_charge
 _atom_site_pbe_ddec_spin_density
 _atom_site_pbe_ddec_sum_bond_order
 _atom_site_pbe_magmom
Cu  Cu0  1  0.50000364  0.99999773  0.00000347  1  0.879965  -0.72819  1.973224  -0.553  0.835006  -0.79143  2.380052  -0.647  0.905764  -0.8514  2.324123  -0.724  0.846705  0.792215  -0.746133  2.419048  -0.592
H  H1  1  0.66818891  0.15734787  0.13822042  1  0.103532  -0.002386  0.92868  -0.003  0.107686  -0.001778  0.991191  -0.002  0.1073  -0.001193  0.99275  -0.002  0.127842  0.107885  -0.002287  0.990304  -0.003
H  H2  1  0.96444818  0.84269118  0.86176381  1  0.103637  -0.002387  0.929168  -0.003  0.108096  -0.001779  0.991138  -0.002  0.107768  -0.001194  0.992627  -0.002  0.128642  0.108246  -0.002288  0.990309  -0.003
H  H3  1  0.33182228  0.84265101  0.86177251  1  0.10348  -0.002387  0.928633  -0.003  0.107637  -0.001779  0.991145  -0.002  0.107251  -0.001194  0.992703  -0.002  0.127799  0.107835  -0.002288  0.990259  -0.003
H  H4  1  0.03556024  0.15730456  0.13823044  1  0.103533  -0.002386  0.92933  -0.003  0.108025  -0.001778  0.991269  -0.002  0.1077  -0.001194  0.992758  -0.002  0.128572  0.108171  -0.002287  0.990442  -0.003
H  H5  1  0.19283591  0.59274949  0.02037644  1  0.148544  3e-06  0.921314  0.0  0.169729  1.2e-05  0.975371  0.0  0.171287  9e-06  0.975191  0.0  0.114889  0.168666  1e-05  0.975497  0.0
H  H6  1  0.80716657  0.40724523  0.97961502  1  0.148552  4e-06  0.921273  0.0  0.169703  1.2e-05  0.975366  0.0  0.171257  9e-06  0.975188  0.0  0.11488  0.168639  1e-05  0.975488  0.0
H  H7  1  0.02680280  0.52623033  0.16120382  1  0.164085  5e-06  0.905909  0.0  0.18659  1.1e-05  0.95388  0.0  0.18816  1e-05  0.953595  0.0  0.121268  0.1855  9e-06  0.954119  0.0
H  H8  1  0.71538797  0.47376813  0.83885488  1  0.164897  5e-06  0.906224  0.0  0.186951  1.2e-05  0.954583  0.0  0.188556  1e-05  0.954255  0.0  0.121462  0.18586  9e-06  0.954803  0.0
H  H9  1  0.97318803  0.47377793  0.83879551  1  0.164091  4e-06  0.905936  0.0  0.186575  1.1e-05  0.953928  0.0  0.188146  1e-05  0.953641  0.0  0.12127  0.185485  9e-06  0.954169  0.0
H  H10  1  0.28460307  0.52624221  0.16114473  1  0.164883  4e-06  0.9062  0.0  0.186982  1.1e-05  0.954508  0.0  0.188587  1e-05  0.95418  0.0  0.121502  0.18589  9e-06  0.954729  0.0
Au  Au11  1  0.79756924  0.89241871  0.51236741  1  0.552032  0.001262  3.378335  -0.002  0.53598  -0.000544  3.961472  -0.002  0.554102  0.000268  3.927983  -0.001  0.57842  0.524269  -0.001876  3.98462  -0.002
Au  Au12  1  0.20241716  0.10757907  0.48763557  1  0.552044  0.001258  3.378087  -0.002  0.53599  -0.000546  3.961206  -0.002  0.554112  0.000266  3.92772  -0.001  0.5784  0.52428  -0.001875  3.984345  -0.002
C  C13  1  0.92225928  0.82751647  0.32801350  1  0.033666  -0.00435  3.567192  -0.005  0.021174  -0.001566  3.913984  -0.002  0.025489  -0.001156  3.927651  -0.001  -0.002101  0.017891  -0.002104  3.904855  -0.002
C  C14  1  0.07772382  0.17249175  0.67199209  1  0.033492  -0.004342  3.567627  -0.005  0.020982  -0.001567  3.914432  -0.002  0.025297  -0.001152  3.928097  -0.001  -0.002198  0.017697  -0.002103  3.905299  -0.002
C  C15  1  0.67241340  0.95666525  0.69856215  1  0.11666  0.029092  3.45927  0.011  0.10119  0.008853  3.801695  -0.002  0.115092  0.011815  3.808874  0.001  0.049315  0.091539  0.006463  3.797373  -0.004
C  C16  1  0.32759612  0.04333256  0.30143613  1  0.116689  0.029078  3.459622  0.011  0.101228  0.008846  3.802033  -0.002  0.11513  0.01181  3.809212  0.001  0.04932  0.091575  0.006461  3.797706  -0.004
C  C17  1  0.81658287  0.08760212  0.07571296  1  0.111485  -0.001119  3.621848  -0.004  0.080661  -0.002262  3.883993  -0.003  0.084739  -0.000277  3.903589  -0.001  0.074304  0.077786  -0.003924  3.87119  -0.005
C  C18  1  0.98041400  0.91237332  0.92426447  1  0.110168  -0.00113  3.623007  -0.004  0.079746  -0.002269  3.884573  -0.003  0.083783  -0.000283  3.904115  -0.001  0.074131  0.076901  -0.00393  3.871805  -0.005
C  C19  1  0.18342059  0.91239673  0.92428624  1  0.111716  -0.0011  3.621896  -0.004  0.0809  -0.002264  3.884041  -0.003  0.084976  -0.000271  3.903636  -0.001  0.074389  0.078024  -0.003924  3.87124  -0.005
C  C20  1  0.01960005  0.08762974  0.07572964  1  0.110438  -0.001111  3.622908  -0.004  0.079996  -0.002269  3.884472  -0.003  0.084025  -0.000275  3.904022  -0.001  0.074269  0.077154  -0.003928  3.871693  -0.005
C  C21  1  0.29130208  0.37333973  0.04347271  1  0.394024  0.00042  3.709276  0.0  0.395524  0.00041  3.989282  0.0  0.408511  0.000384  4.004587  0.0  0.198481  0.386911  0.000416  3.978801  0.0
C  C22  1  0.70869662  0.62666431  0.95653171  1  0.394107  0.000422  3.709233  0.0  0.39563  0.000411  3.989184  0.0  0.408617  0.000384  4.004483  0.0  0.198634  0.38702  0.000416  3.978709  0.0
C  C23  1  0.19444348  0.51134961  0.09866747  1  -0.368055  1.2e-05  3.777449  0.0  -0.442764  3.5e-05  4.005385  0.0  -0.445608  3.7e-05  4.010618  0.0  -0.206895  -0.440692  3.4e-05  4.001612  0.0
C  C24  1  0.80554970  0.48865445  0.90133319  1  -0.368099  1.2e-05  3.777486  0.0  -0.442719  3.5e-05  4.005416  0.0  -0.445565  3.7e-05  4.010661  0.0  -0.206887  -0.440651  3.4e-05  4.001645  0.0
N  N25  1  0.99478600  0.79252599  0.21810137  1  -0.355082  0.001289  2.74587  0.0  -0.32961  0.000532  2.991853  0.0  -0.341031  0.000674  3.012054  0.0  -0.336472  -0.321427  0.000349  2.978042  0.0
N  N26  1  0.00520249  0.20747392  0.78189531  1  -0.354937  0.001279  2.746403  0.0  -0.32944  0.000535  2.992378  0.0  -0.34086  0.000669  3.012578  0.0  -0.33639  -0.321261  0.000349  2.978565  0.0
N  N27  1  0.60150565  0.98807202  0.80910240  1  -0.391393  -0.067375  3.151412  -0.086  -0.355777  -0.045064  3.464647  -0.059  -0.37994  -0.038632  3.473995  -0.053  -0.376526  -0.341057  -0.048846  3.459419  -0.062
N  N28  1  0.39849890  0.01192574  0.19090402  1  -0.391414  -0.067359  3.151865  -0.086  -0.355804  -0.045055  3.465103  -0.059  -0.379968  -0.038626  3.474449  -0.053  -0.376523  -0.341089  -0.04884  3.459874  -0.062
N  N29  1  0.79879588  0.99997173  0.99998077  1  -0.217341  -0.089369  3.300373  -0.118  -0.179068  -0.060487  3.592418  -0.085  -0.205995  -0.04698  3.616338  -0.071  -0.305057  -0.162003  -0.069428  3.577062  -0.093
N  N30  1  0.20121727  0.00002507  0.00001127  1  -0.217366  -0.089381  3.300313  -0.118  -0.179127  -0.060486  3.59242  -0.085  -0.206052  -0.046983  3.616342  -0.071  -0.305059  -0.162064  -0.069429  3.577056  -0.093
N  N31  1  0.36915618  0.26216528  0.99918760  1  -0.463205  0.001618  2.704632  0.0  -0.451764  0.00163  2.951955  0.0  -0.465657  0.001757  2.960479  0.0  -0.320195  -0.442733  0.001446  2.946603  0.0
N  N32  1  0.63083891  0.73783665  0.00082156  1  -0.463299  0.001616  2.704619  0.0  -0.451876  0.00163  2.951961  0.0  -0.465768  0.001757  2.96048  0.0  -0.320304  -0.442846  0.001446  2.946614  0.0
Cl  Cl33  1  0.72168879  0.12296185  0.43381245  1  -0.341159  -0.000605  1.054812  -0.001  -0.336332  -4.8e-05  1.328538  0.0  -0.345233  0.000165  1.309767  0.0  -0.228288  -0.330117  -0.000471  1.341663  -0.001
Cl  Cl34  1  0.27831699  0.87703278  0.56619277  1  -0.341178  -0.000605  1.05473  -0.001  -0.336347  -4.8e-05  1.328443  0.0  -0.34525  0.000165  1.309673  0.0  -0.22831  -0.33013  -0.000471  1.341567  -0.001
Cl  Cl35  1  0.87336190  0.66310292  0.59037442  1  -0.306602  -0.0009  0.982614  -0.002  -0.295685  1.6e-05  1.218807  0.0  -0.304368  0.000282  1.203346  0.0  -0.236648  -0.289691  -0.000517  1.229656  -0.001
Cl  Cl36  1  0.12664063  0.33689280  0.40962421  1  -0.306588  -0.000899  0.982611  -0.002  -0.29567  1.6e-05  1.218809  0.0  -0.304353  0.000282  1.203349  0.0  -0.236637  -0.289678  -0.000517  1.229655  -0.001
