# generated using pymatgen
data_NaH4CN4O3
_symmetry_space_group_name_H-M   'P 1'
_cell_length_a   5.55106646
_cell_length_b   6.50750198
_cell_length_c   8.44065178
_cell_angle_alpha   101.52048447
_cell_angle_beta   98.44400882
_cell_angle_gamma   111.67494916
_symmetry_Int_Tables_number   1
_chemical_formula_structural   NaH4CN4O3
_chemical_formula_sum   'Na2 H8 C2 N8 O6'
_cell_volume   269.36795368
_cell_formula_units_Z   2
loop_
 _symmetry_equiv_pos_site_id
 _symmetry_equiv_pos_as_xyz
  1  'x, y, z'
loop_
 _atom_site_type_symbol
 _atom_site_label
 _atom_site_symmetry_multiplicity
 _atom_site_fract_x
 _atom_site_fract_y
 _atom_site_fract_z
 _atom_site_occupancy
 _atom_site_hle17_bader_spin_density
 _atom_site_hle17_ddec_charge
 _atom_site_hle17_ddec_spin_density
 _atom_site_hle17_ddec_sum_bond_order
 _atom_site_hle17_magmom
 _atom_site_hse06_10hf_bader_spin_density
 _atom_site_hse06_10hf_ddec_charge
 _atom_site_hse06_10hf_ddec_spin_density
 _atom_site_hse06_10hf_ddec_sum_bond_order
 _atom_site_hse06_10hf_magmom
 _atom_site_hse06_bader_spin_density
 _atom_site_hse06_ddec_charge
 _atom_site_hse06_ddec_spin_density
 _atom_site_hse06_ddec_sum_bond_order
 _atom_site_hse06_magmom
 _atom_site_pbe_bader_spin_density
 _atom_site_pbe_cm5_charge
 _atom_site_pbe_ddec_charge
 _atom_site_pbe_ddec_spin_density
 _atom_site_pbe_ddec_sum_bond_order
 _atom_site_pbe_magmom
Na  Na0  1  0.81921869  0.64299326  0.08573752  1  0  0.885053  0  0.417261  0  0  0.832373  0  0.586026  0  0  0.8431  0  0.562996  0  0  0.691637  0.824589  0  0.602348  0
Na  Na1  1  0.18077632  0.35701048  0.91426043  1  0  0.885074  0  0.417187  0  0  0.832384  0  0.585974  0  0  0.843109  0  0.562949  0  0  0.691652  0.824599  0  0.602296  0
H  H2  1  0.39659193  0.83303821  0.08539276  1  0  0.409298  0  0.897285  0  0  0.378508  0  0.961935  0  0  0.388642  0  0.947123  0  0  0.293731  0.371383  0  0.972342  0
H  H3  1  0.60341001  0.16696057  0.91461216  1  0  0.409306  0  0.89728  0  0  0.378514  0  0.961917  0  0  0.388642  0  0.947114  0  0  0.293717  0.371389  0  0.972322  0
H  H4  1  0.22428107  0.84056329  0.92347305  1  0  0.408463  0  0.902018  0  0  0.377794  0  0.965867  0  0  0.388452  0  0.950191  0  0  0.29181  0.370312  0  0.97686  0
H  H5  1  0.77571904  0.15943547  0.07653171  1  0  0.408485  0  0.90197  0  0  0.377783  0  0.965891  0  0  0.388443  0  0.950209  0  0  0.291821  0.370301  0  0.976884  0
H  H6  1  0.49495309  0.34998614  0.25188632  1  0  0.39096  0  0.920976  0  0  0.35336  0  0.997387  0  0  0.363585  0  0.98197  0  0  0.286864  0.346129  0  1.008273  0
H  H7  1  0.50504790  0.65001438  0.74812115  1  0  0.391003  0  0.920913  0  0  0.353421  0  0.997292  0  0  0.363645  0  0.981878  0  0  0.286883  0.346189  0  1.008182  0
H  H8  1  0.36516091  0.52518536  0.27939691  1  0  0.389871  0  0.923109  0  0  0.351066  0  1.001113  0  0  0.361253  0  0.986136  0  0  0.286399  0.343897  0  1.011615  0
H  H9  1  0.63483625  0.47481503  0.72060428  1  0  0.389899  0  0.92308  0  0  0.351108  0  1.00106  0  0  0.361293  0  0.986086  0  0  0.286433  0.34394  0  1.011562  0
C  C10  1  0.92783443  0.07133980  0.49761207  1  0  0.153257  0  3.75968  0  0  0.123823  0  4.04285  0  0  0.132026  0  4.054647  0  0  0.226223  0.118352  0  4.035091  0
C  C11  1  0.07215305  0.92868632  0.50239804  1  0  0.153474  0  3.759776  0  0  0.124385  0  4.042612  0  0  0.132562  0  4.054456  0  0  0.226461  0.11891  0  4.034866  0
N  N12  1  0.78169025  0.08182985  0.35646727  1  0  0.280121  0  3.724402  0  0  0.315426  0  4.007158  0  0  0.316139  0  4.02741  0  0  -0.008899  0.314342  0  3.993575  0
N  N13  1  0.21832304  0.91815978  0.64350054  1  0  0.280351  0  3.726053  0  0  0.315617  0  4.008731  0  0  0.316333  0  4.028997  0  0  -0.008882  0.31453  0  3.995138  0
N  N14  1  0.67174509  0.23107056  0.40223690  1  0  -0.165703  0  2.882347  0  0  -0.155809  0  3.167396  0  0  -0.156275  0  3.175813  0  0  -0.076269  -0.155291  0  3.161874  0
N  N15  1  0.32824854  0.76893344  0.59777637  1  0  -0.165591  0  2.88297  0  0  -0.155773  0  3.168058  0  0  -0.156242  0  3.176481  0  0  -0.076244  -0.155251  0  3.16253  0
N  N16  1  0.75101091  0.30921926  0.56590628  1  0  -0.063733  0  3.054786  0  0  -0.04345  0  3.354994  0  0  -0.044842  0  3.364848  0  0  -0.076924  -0.042203  0  3.34825  0
N  N17  1  0.24898190  0.69079847  0.43411015  1  0  -0.064029  0  3.055389  0  0  -0.043708  0  3.355648  0  0  -0.045108  0  3.365508  0  0  -0.077012  -0.042458  0  3.348898  0
N  N18  1  0.90795237  0.21555364  0.62810558  1  0  -0.318782  0  3.028522  0  0  -0.310088  0  3.334726  0  0  -0.315425  0  3.342658  0  0  -0.274208  -0.306594  0  3.329538  0
N  N19  1  0.09206771  0.78448324  0.37192085  1  0  -0.318857  0  3.028844  0  0  -0.310273  0  3.335026  0  0  -0.315604  0  3.342957  0  0  -0.274298  -0.30678  0  3.329843  0
O  O20  1  0.74299004  0.97438834  0.20078597  1  0  -0.565972  0  1.861348  0  0  -0.51862  0  2.08185  0  0  -0.539617  0  2.076817  0  0  -0.256528  -0.503658  0  2.085073  0
O  O21  1  0.25698509  0.02554762  0.79915744  1  0  -0.566064  0  1.862243  0  0  -0.518785  0  2.082789  0  0  -0.53977  0  2.077761  0  0  -0.256534  -0.503823  0  2.086003  0
O  O22  1  0.22298496  0.74617593  0.00272285  1  0  -0.907223  0  1.795864  0  0  -0.856532  0  1.97133  0  0  -0.874395  0  1.938566  0  0  -0.70209  -0.843927  0  1.99412  0
O  O23  1  0.77701494  0.25382625  0.99728240  1  0  -0.907263  0  1.79583  0  0  -0.856518  0  1.971291  0  0  -0.874377  0  1.938531  0  0  -0.702061  -0.84391  0  1.994076  0
O  O24  1  0.42531656  0.44097343  0.19359629  1  0  -0.895657  0  1.839557  0  0  -0.847963  0  2.025447  0  0  -0.862746  0  1.992363  0  0  -0.681824  -0.837441  0  2.048541  0
O  O25  1  0.57467825  0.55902183  0.80640629  1  0  -0.895743  0  1.839558  0  0  -0.848044  0  2.025402  0  0  -0.862825  0  1.992319  0  0  -0.681857  -0.837525  0  2.048497  0
