# generated using pymatgen
data_CuH6C5N8
_symmetry_space_group_name_H-M   'P 1'
_cell_length_a   5.15358769
_cell_length_b   9.01292276
_cell_length_c   10.09845823
_cell_angle_alpha   105.50540494
_cell_angle_beta   90.12850887
_cell_angle_gamma   100.55542690
_symmetry_Int_Tables_number   1
_chemical_formula_structural   CuH6C5N8
_chemical_formula_sum   'Cu2 H12 C10 N16'
_cell_volume   443.69238754
_cell_formula_units_Z   2
loop_
 _symmetry_equiv_pos_site_id
 _symmetry_equiv_pos_as_xyz
  1  'x, y, z'
loop_
 _atom_site_type_symbol
 _atom_site_label
 _atom_site_symmetry_multiplicity
 _atom_site_fract_x
 _atom_site_fract_y
 _atom_site_fract_z
 _atom_site_occupancy
 _atom_site_hle17_ddec_charge
 _atom_site_hle17_ddec_spin_density
 _atom_site_hle17_ddec_sum_bond_order
 _atom_site_hle17_magmom
 _atom_site_hse06_10hf_ddec_charge
 _atom_site_hse06_10hf_ddec_spin_density
 _atom_site_hse06_10hf_ddec_sum_bond_order
 _atom_site_hse06_10hf_magmom
 _atom_site_hse06_ddec_charge
 _atom_site_hse06_ddec_spin_density
 _atom_site_hse06_ddec_sum_bond_order
 _atom_site_hse06_magmom
 _atom_site_pbe_cm5_charge
 _atom_site_pbe_ddec_charge
 _atom_site_pbe_ddec_spin_density
 _atom_site_pbe_ddec_sum_bond_order
 _atom_site_pbe_magmom
Cu  Cu0  1  0.61477281  0.84967951  0.51142889  1  0.737329  0.51947  2.017692  0.351  0.747044  0.701095  2.437191  0.534  0.842916  0.816995  2.359892  0.644  0.767987  0.695689  0.596089  2.485012  0.447
Cu  Cu1  1  0.38524012  0.15032141  0.48857775  1  0.737523  -0.519515  2.017367  -0.351  0.747071  -0.701093  2.436883  -0.534  0.842927  -0.816975  2.359559  -0.644  0.767885  0.695681  -0.596107  2.484695  -0.447
H  H2  1  0.59464598  0.43341167  0.91060918  1  0.307569  0.000107  0.922414  0.0  0.292288  9.1e-05  0.988434  0.0  0.298067  5.5e-05  0.984507  0.0  0.296944  0.288051  6.9e-05  0.991304  0.0
H  H3  1  0.40536274  0.56658805  0.08939419  1  0.307517  -0.000124  0.922471  0.0  0.29223  -9.1e-05  0.98851  0.0  0.298008  -5.4e-05  0.984585  0.0  0.296943  0.287997  -6.9e-05  0.991374  0.0
H  H4  1  0.38488790  0.40968614  0.77046530  1  0.306804  0.000266  0.959141  0.0  0.290798  0.000205  1.027973  0.0  0.296986  0.000259  1.024263  0.0  0.28531  0.286588  0.000109  1.030363  0.0
H  H5  1  0.61510762  0.59031473  0.22953726  1  0.306755  -0.000268  0.95918  0.0  0.290769  -0.000205  1.027989  0.0  0.296956  -0.000259  1.02428  0.0  0.285315  0.286558  -0.000109  1.030388  0.0
H  H6  1  0.42033868  0.59675964  0.63622744  1  0.097484  0.00159  0.962175  0.002  0.10548  0.001683  1.028349  0.002  0.107586  0.001288  1.026867  0.002  0.116899  0.103864  0.001848  1.029561  0.002
H  H7  1  0.57965811  0.40323301  0.36377226  1  0.097542  -0.001584  0.962188  -0.002  0.105527  -0.001683  1.028364  -0.002  0.107635  -0.001288  1.026882  -0.002  0.116908  0.103909  -0.001849  1.029575  -0.002
H  H8  1  0.96576938  0.66667090  0.98436207  1  0.105251  0.000431  0.939975  0.001  0.115084  0.000125  1.001685  0.0  0.119001  3.5e-05  0.998364  0.0  0.103791  0.112207  0.000149  1.003968  0.0
H  H9  1  0.03423741  0.33333462  0.01563766  1  0.105328  -0.000424  0.93999  -0.001  0.115136  -0.000125  1.001704  0.0  0.119054  -3.6e-05  0.998384  0.0  0.103814  0.112257  -0.000148  1.003988  0.0
H  H10  1  0.20888353  0.90277574  0.92488466  1  0.102512  0.000559  0.967542  0.001  0.107435  0.000636  1.03632  0.001  0.10963  0.00045  1.036161  0.001  0.103441  0.105601  0.000741  1.03665  0.001
H  H11  1  0.79111588  0.09723094  0.07511431  1  0.102502  -0.000554  0.967529  -0.001  0.107438  -0.000636  1.03629  -0.001  0.109631  -0.00045  1.036131  -0.001  0.103448  0.105604  -0.00074  1.036618  -0.001
H  H12  1  0.04082969  0.97899949  0.72211092  1  0.07602  0.001211  0.976729  0.002  0.078127  0.0012  1.057281  0.002  0.079735  0.0009  1.055989  0.002  0.107736  0.076244  0.001287  1.059104  0.002
H  H13  1  0.95915826  0.02099541  0.27788132  1  0.076047  -0.001197  0.976623  -0.002  0.078134  -0.0012  1.057197  -0.002  0.079761  -0.000901  1.055886  -0.002  0.107746  0.076248  -0.001288  1.059016  -0.002
C  C14  1  0.59317360  0.66109919  0.70337111  1  0.004385  -0.007053  3.63691  -0.007  -0.028457  -0.000189  3.888782  -0.001  -0.024006  -0.001627  3.90844  -0.003  0.030881  -0.0307  0.001048  3.876143  0.0
C  C15  1  0.40682633  0.33889692  0.29662445  1  0.004247  0.007064  3.636903  0.007  -0.028599  0.000192  3.888771  0.001  -0.024149  0.001625  3.90842  0.003  0.030855  -0.030847  -0.001049  3.876132  0.0
C  C16  1  0.66852381  0.61137876  0.81634993  1  0.286075  0.008748  3.858309  0.01  0.287595  0.00456  4.098253  0.006  0.295115  0.004199  4.118663  0.005  0.106769  0.282215  0.004561  4.08431  0.006
C  C17  1  0.33147489  0.38861973  0.18364914  1  0.286071  -0.008762  3.858301  -0.01  0.287613  -0.004561  4.098212  -0.006  0.295133  -0.004199  4.118621  -0.005  0.106733  0.282222  -0.004559  4.084285  -0.006
C  C18  1  0.89730310  0.70025577  0.89622354  1  -0.134616  -0.011145  3.683713  -0.01  -0.156178  -0.003632  3.929019  -0.003  -0.156932  -0.003941  3.944666  -0.004  -0.085616  -0.155672  -0.00308  3.918524  -0.003
C  C19  1  0.10269832  0.29974503  0.10377310  1  -0.134672  0.011133  3.683664  0.01  -0.156204  0.003633  3.92896  0.003  -0.156958  0.003939  3.944604  0.004  -0.085621  -0.155698  0.003081  3.918476  0.003
C  C20  1  0.03345033  0.83229573  0.86319498  1  -0.08582  0.010903  3.781098  0.011  -0.097717  0.004739  4.034677  0.005  -0.101441  0.004415  4.05661  0.005  -0.086692  -0.095498  0.004396  4.020203  0.005
C  C21  1  0.96654529  0.16770505  0.13680064  1  -0.085915  -0.010907  3.781036  -0.011  -0.09783  -0.004739  4.034637  -0.005  -0.101554  -0.004417  4.056577  -0.005  -0.086775  -0.095617  -0.004395  4.020171  -0.005
C  C22  1  0.94384029  0.87561594  0.75134903  1  0.064017  -0.009584  3.723143  -0.009  0.024294  -0.001136  3.996966  -0.002  0.029835  -0.002523  4.019403  -0.003  0.009592  0.021022  -5.5e-05  3.983112  -0.001
C  C23  1  0.05615421  0.12438131  0.24864477  1  0.064033  0.009548  3.723025  0.009  0.024323  0.001136  3.996857  0.002  0.029854  0.002521  4.019269  0.003  0.009586  0.021052  5.3e-05  3.98299  0.001
N  N24  1  0.49833433  0.95236437  0.37025377  1  -0.549713  0.004642  2.94243  0.005  -0.58453  5.1e-05  3.331671  -0.001  -0.639443  -0.000537  3.344631  -0.002  -0.353759  -0.552765  0.000166  3.3245  0.0
N  N25  1  0.50167644  0.04762363  0.62974791  1  -0.549756  -0.004685  2.942495  -0.005  -0.584591  -5.4e-05  3.331765  0.001  -0.639488  0.000535  3.344688  0.002  -0.353847  -0.552824  -0.000157  3.324606  0.0
N  N26  1  0.47162653  0.89774671  0.24645263  1  0.400662  -0.004348  4.132313  -0.006  0.449342  -0.000573  4.421065  -0.001  0.470967  -0.000804  4.454405  -0.001  0.100239  0.436392  -0.000196  4.396269  -0.001
N  N27  1  0.52837956  0.10224479  0.75354884  1  0.400739  0.00439  4.132335  0.006  0.449425  0.000578  4.421058  0.001  0.471057  0.000805  4.45439  0.001  0.100414  0.436471  0.000191  4.396272  0.001
N  N28  1  0.44875797  0.84605545  0.12762591  1  -0.300821  0.017074  2.351769  0.019  -0.298825  0.00492  2.565222  0.006  -0.304921  0.004371  2.57545  0.005  -0.130334  -0.292225  0.00516  2.555814  0.006
N  N29  1  0.55123327  0.15395007  0.87237472  1  -0.300845  -0.017068  2.351782  -0.019  -0.298875  -0.004935  2.56525  -0.006  -0.30497  -0.004384  2.575472  -0.005  -0.130413  -0.292253  -0.005158  2.555819  -0.006
N  N30  1  0.23267857  0.66963288  0.46412846  1  -0.374445  0.107519  2.557328  0.116  -0.402311  0.055513  2.842923  0.064  -0.424189  0.046747  2.852733  0.056  -0.206289  -0.391242  0.057251  2.837988  0.064
N  N31  1  0.76732398  0.33037144  0.53586900  1  -0.374565  -0.107463  2.557327  -0.116  -0.402338  -0.055509  2.842859  -0.064  -0.424209  -0.046742  2.852661  -0.056  -0.206354  -0.391274  -0.05725  2.83792  -0.064
N  N32  1  0.04289840  0.70299331  0.42479052  1  0.396934  -0.027966  4.174494  -0.041  0.447609  -0.003714  4.474465  -0.011  0.468112  -0.005445  4.51129  -0.012  0.087754  0.435202  -0.001191  4.451732  -0.008
N  N33  1  0.95710130  0.29701460  0.57521467  1  0.396945  0.027964  4.174474  0.041  0.447574  0.003715  4.474453  0.011  0.468074  0.005444  4.511283  0.012  0.087804  0.435155  0.001189  4.451715  0.008
N  N34  1  0.85212086  0.73758082  0.38145029  1  -0.492102  0.07163  2.698739  0.084  -0.519763  0.039405  3.022495  0.051  -0.555088  0.024266  3.030941  0.035  -0.29955  -0.500659  0.045057  3.019272  0.055
N  N35  1  0.14787491  0.26242714  0.61855885  1  -0.49209  -0.071654  2.698681  -0.084  -0.519694  -0.039403  3.022418  -0.051  -0.555013  -0.024268  3.030856  -0.035  -0.299515  -0.500595  -0.045055  3.019189  -0.055
N  N36  1  0.72765954  0.78883623  0.67345247  1  -0.283208  0.076647  3.45945  0.091  -0.225779  0.066488  3.748541  0.086  -0.258327  0.058131  3.777836  0.079  -0.358438  -0.208422  0.064895  3.732035  0.082
N  N37  1  0.27233771  0.21115752  0.32654154  1  -0.283102  -0.076639  3.459219  -0.091  -0.225641  -0.066486  3.748245  -0.086  -0.258176  -0.058132  3.777528  -0.079  -0.358324  -0.208272  -0.06489  3.731707  -0.082
N  N38  1  0.51608455  0.48455284  0.84594568  1  -0.664374  -0.000852  3.166341  -0.001  -0.631558  0.000298  3.389909  0.0  -0.653646  0.000792  3.394487  0.001  -0.596639  -0.615889  -1.7e-05  3.38626  0.0
N  N39  1  0.48391556  0.51545041  0.15406043  1  -0.664245  0.000897  3.166418  0.001  -0.631445  -0.000298  3.389951  0.0  -0.653532  -0.000793  3.394531  -0.001  -0.596631  -0.615777  1.9e-05  3.386312  0.0
