# generated using pymatgen
data_H10PbC12(N2Cl)2
_symmetry_space_group_name_H-M   'P 1'
_cell_length_a   4.10147730
_cell_length_b   8.83982887
_cell_length_c   11.03587324
_cell_angle_alpha   110.93199918
_cell_angle_beta   95.23400031
_cell_angle_gamma   90.09675119
_symmetry_Int_Tables_number   1
_chemical_formula_structural   H10PbC12(N2Cl)2
_chemical_formula_sum   'H10 Pb1 C12 N4 Cl2'
_cell_volume   371.90358792
_cell_formula_units_Z   1
loop_
 _symmetry_equiv_pos_site_id
 _symmetry_equiv_pos_as_xyz
  1  'x, y, z'
loop_
 _atom_site_type_symbol
 _atom_site_label
 _atom_site_symmetry_multiplicity
 _atom_site_fract_x
 _atom_site_fract_y
 _atom_site_fract_z
 _atom_site_occupancy
 _atom_site_pbe_bader_spin_density
 _atom_site_pbe_cm5_charge
 _atom_site_pbe_ddec_charge
 _atom_site_pbe_ddec_spin_density
 _atom_site_pbe_ddec_sum_bond_order
 _atom_site_pbe_magmom
H  H0  1  0.74816427  0.34187527  0.96089254  1  0  0.105118  0.076134  0  1.022504  0
H  H1  1  0.25176173  0.65817603  0.03910586  1  0  0.105151  0.076224  0  1.02263  0
H  H2  1  0.65388279  0.52978932  0.83630781  1  0  0.094048  0.114679  0  1.054644  0
H  H3  1  0.34624615  0.47018042  0.16361841  1  0  0.09416  0.114584  0  1.054607  0
H  H4  1  0.01094776  0.15780699  0.55457690  1  0  0.108134  0.114498  0  1.019477  0
H  H5  1  0.98919127  0.84213755  0.44536348  1  0  0.108185  0.114776  0  1.019367  0
H  H6  1  0.13551507  0.98353615  0.69014512  1  0  0.110636  0.082463  0  1.010941  0
H  H7  1  0.86419338  0.01654136  0.30993583  1  0  0.110716  0.082384  0  1.011277  0
H  H8  1  0.40394787  0.58239418  0.64756389  1  0  0.112038  0.088598  0  0.999902  0
H  H9  1  0.59603671  0.41760200  0.35239572  1  0  0.111917  0.088444  0  1.000101  0
Pb  Pb10  1  0.49995207  0.00006130  0.00006741  1  0  0.461544  0.845877  0  2.228794  0
C  C11  1  0.58650217  0.30602765  0.87011515  1  0  0.043557  0.090421  0  3.977441  0
C  C12  1  0.41342721  0.69400666  0.12987863  1  0  0.043435  0.090323  0  3.977113  0
C  C13  1  0.53348810  0.40977036  0.80135644  1  0  -0.080433  -0.161408  0  3.914852  0
C  C14  1  0.46657406  0.59021807  0.19859090  1  0  -0.080444  -0.161194  0  3.914933  0
C  C15  1  0.32125910  0.35825427  0.68601731  1  0  0.012235  0.114003  0  3.988613  0
C  C16  1  0.67882825  0.64171468  0.31392635  1  0  0.012293  0.113944  0  3.988538  0
C  C17  1  0.17722451  0.20127569  0.64360495  1  0  -0.077146  -0.155588  0  3.91422  0
C  C18  1  0.82281235  0.79870226  0.35636220  1  0  -0.077167  -0.156126  0  3.914503  0
C  C19  1  0.24558693  0.10537954  0.71811639  1  0  0.043988  0.085333  0  3.973705  0
C  C20  1  0.75426282  0.89466533  0.28191757  1  0  0.04387  0.08575  0  3.973579  0
C  C21  1  0.25336826  0.46997660  0.61723873  1  0  0.078878  0.063888  0  3.907069  0
C  C22  1  0.74673952  0.52997514  0.38268903  1  0  0.078816  0.064079  0  3.907296  0
N  N23  1  0.44501733  0.15689773  0.83015310  1  0  -0.305254  -0.258397  0  3.460822  0
N  N24  1  0.55477336  0.84317055  0.16989629  1  0  -0.305271  -0.258456  0  3.460427  0
N  N25  1  0.01508833  0.43877684  0.52553237  1  0  -0.211656  -0.171959  0  3.312588  0
N  N26  1  0.98515656  0.56112289  0.47434467  1  0  -0.211549  -0.171815  0  3.312663  0
Cl  Cl27  1  0.96655798  0.78510008  0.85117458  1  0  -0.264987  -0.505772  0  1.13858  0
Cl  Cl28  1  0.03348918  0.21486412  0.14911078  1  0  -0.264809  -0.505687  0  1.13865  0
