# generated using pymatgen
data_Cu3H6(CO4)2
_symmetry_space_group_name_H-M   'P 1'
_cell_length_a   5.83682903
_cell_length_b   6.95028210
_cell_length_c   9.19685983
_cell_angle_alpha   90.00253410
_cell_angle_beta   89.99970854
_cell_angle_gamma   105.98786994
_symmetry_Int_Tables_number   1
_chemical_formula_structural   Cu3H6(CO4)2
_chemical_formula_sum   'Cu6 H12 C4 O16'
_cell_volume   358.66331866
_cell_formula_units_Z   2
loop_
 _symmetry_equiv_pos_site_id
 _symmetry_equiv_pos_as_xyz
  1  'x, y, z'
loop_
 _atom_site_type_symbol
 _atom_site_label
 _atom_site_symmetry_multiplicity
 _atom_site_fract_x
 _atom_site_fract_y
 _atom_site_fract_z
 _atom_site_occupancy
 _atom_site_hle17_ddec_charge
 _atom_site_hle17_ddec_spin_density
 _atom_site_hle17_ddec_sum_bond_order
 _atom_site_hle17_magmom
 _atom_site_hse06_10hf_ddec_charge
 _atom_site_hse06_10hf_ddec_spin_density
 _atom_site_hse06_10hf_ddec_sum_bond_order
 _atom_site_hse06_10hf_magmom
 _atom_site_hse06_ddec_charge
 _atom_site_hse06_ddec_spin_density
 _atom_site_hse06_ddec_sum_bond_order
 _atom_site_hse06_magmom
 _atom_site_pbe_cm5_charge
 _atom_site_pbe_ddec_charge
 _atom_site_pbe_ddec_spin_density
 _atom_site_pbe_ddec_sum_bond_order
 _atom_site_pbe_magmom
Cu  Cu0  1  0.96896208  0.02121488  0.66172556  1  1.057134  0.622523  1.685174  0.487  1.094153  0.768533  2.060529  0.656  1.194936  0.85914  1.987849  0.755  0.660322  1.017141  0.680014  2.126433  0.57
Cu  Cu1  1  0.53104919  0.97874755  0.16172318  1  1.057072  -0.622456  1.685087  -0.487  1.094179  -0.768532  2.060421  -0.656  1.194917  -0.859126  1.987768  -0.755  0.660264  1.017047  -0.679953  2.126406  -0.569
Cu  Cu2  1  0.03086407  0.97943103  0.33720192  1  1.065418  -0.571248  1.706836  -0.447  1.103207  -0.768059  2.083413  -0.654  1.201121  -0.861013  2.010713  -0.756  0.6657  1.024893  -0.621653  2.150038  -0.52
Cu  Cu3  1  0.46916512  0.02059471  0.83719231  1  1.06558  0.571198  1.706525  0.447  1.103307  0.768051  2.083215  0.654  1.201315  0.861016  2.010379  0.756  0.665729  1.025047  0.621609  2.149742  0.52
Cu  Cu4  1  0.99999673  0.99996836  0.00194983  1  1.091005  -0.605786  1.708666  -0.469  1.131207  -0.775459  2.072869  -0.657  1.218681  -0.860689  2.01027  -0.752  0.672011  1.06084  -0.649513  2.133469  -0.539
Cu  Cu5  1  0.50002211  0.00003391  0.50194815  1  1.091007  0.605785  1.708703  0.469  1.131215  0.775472  2.072879  0.657  1.21865  0.860696  2.010347  0.752  0.672046  1.060973  0.649532  2.13328  0.539
H  H6  1  0.68290817  0.50655115  0.87176253  1  0.022984  0.003368  0.911099  0.005  0.032713  0.002175  0.978179  0.003  0.031902  0.001347  0.973777  0.002  0.114963  0.032271  0.002755  0.982921  0.004
H  H7  1  0.81699265  0.49344285  0.37180678  1  0.02302  -0.003368  0.911256  -0.005  0.032768  -0.002175  0.978306  -0.003  0.031956  -0.001346  0.97391  -0.002  0.115  0.032325  -0.002755  0.983048  -0.004
H  H8  1  0.31755341  0.49319205  0.12887420  1  0.024368  -0.002919  0.908729  -0.004  0.032923  -0.002088  0.976751  -0.003  0.031819  -0.001359  0.972621  -0.002  0.115495  0.033039  -0.002249  0.981292  -0.003
H  H9  1  0.18248195  0.50684434  0.62876038  1  0.024483  0.002919  0.908981  0.004  0.03324  0.002088  0.976762  0.003  0.032134  0.001359  0.97264  0.002  0.115661  0.033387  0.002249  0.981259  0.003
H  H10  1  0.16872124  0.28887970  0.83713745  1  0.401059  0.000103  0.915661  0.0  0.377437  0.000204  0.973322  0.0  0.392177  0.000163  0.952677  0.0  0.272626  0.366618  0.000211  0.98832  0.0
H  H11  1  0.33124818  0.71112068  0.33716000  1  0.400944  -0.000104  0.915812  0.0  0.377342  -0.000205  0.973455  0.0  0.39208  -0.000164  0.952814  0.0  0.27259  0.366519  -0.000212  0.988456  0.0
H  H12  1  0.83110054  0.70863176  0.16322089  1  0.403816  7.7e-05  0.912545  0.003  0.379304  -0.001117  0.971822  -0.001  0.394061  -0.000714  0.951153  0.0  0.273199  0.368585  -0.001215  0.986568  -0.001
H  H13  1  0.66894144  0.29136664  0.66321474  1  0.40384  -7.7e-05  0.912554  -0.003  0.379344  0.001117  0.971809  0.001  0.394093  0.000714  0.95115  0.0  0.273257  0.368633  0.001215  0.986545  0.001
H  H14  1  0.73662384  0.73755277  0.52433711  1  0.403547  -0.000381  0.894793  -0.002  0.377587  0.000525  0.965851  0.0  0.391962  0.000272  0.945766  -0.001  0.279487  0.366514  0.000696  0.981353  0.0
H  H15  1  0.76340509  0.26244228  0.02438198  1  0.403545  0.000381  0.894766  0.002  0.377569  -0.000525  0.965868  0.0  0.391955  -0.000272  0.945766  0.001  0.279464  0.366492  -0.000695  0.981376  0.0
H  H16  1  0.26396722  0.26207930  0.47406842  1  0.404076  3.5e-05  0.89469  0.0  0.378361  0.000383  0.965175  0.001  0.392687  0.000297  0.945212  0.001  0.280209  0.367018  0.000449  0.981108  0.001
H  H17  1  0.23602282  0.73792132  0.97401161  1  0.40392  -3.6e-05  0.894973  0.0  0.378316  -0.000384  0.965286  -0.001  0.392642  -0.000297  0.945321  -0.001  0.28016  0.366974  -0.000449  0.981215  -0.001
C  C18  1  0.72404913  0.60876377  0.77709721  1  0.591634  -0.002279  3.875551  -0.004  0.525571  0.000178  4.184356  -0.001  0.562432  0.000127  4.17693  -0.001  0.143642  0.500079  0.000351  4.188287  -0.001
C  C19  1  0.77592356  0.39123672  0.27711834  1  0.591496  0.002274  3.875836  0.004  0.525385  -0.000179  4.184712  0.001  0.56226  -0.000129  4.177292  0.001  0.143574  0.499881  -0.000352  4.188645  0.001
C  C20  1  0.27543238  0.39106214  0.22357758  1  0.593493  0.002325  3.872288  0.004  0.528318  0.000307  4.181396  0.001  0.565211  0.00024  4.174152  0.001  0.145507  0.502504  0.00034  4.184471  0.002
C  C21  1  0.22455675  0.60895723  0.72349449  1  0.592904  -0.002318  3.872566  -0.004  0.527509  -0.000305  4.181839  -0.001  0.564393  -0.000239  4.174616  -0.001  0.14513  0.50169  -0.000338  4.184904  -0.002
O  O22  1  0.15362458  0.14189209  0.82826445  1  -0.926756  0.01977  2.000249  0.029  -0.944715  0.00824  2.323194  0.014  -1.011347  0.005007  2.285522  0.009  -0.599025  -0.892619  0.012604  2.350538  0.02
O  O23  1  0.34638760  0.85810771  0.32825411  1  -0.926677  -0.019745  2.000502  -0.029  -0.944676  -0.008225  2.323388  -0.014  -1.011265  -0.005  2.285722  -0.009  -0.599042  -0.892573  -0.012592  2.350725  -0.02
O  O24  1  0.84420097  0.85560817  0.17284415  1  -0.917226  -0.151405  2.000653  -0.211  -0.947322  -0.100753  2.331605  -0.149  -1.015608  -0.079015  2.294828  -0.122  -0.59692  -0.890939  -0.105854  2.356042  -0.152
O  O25  1  0.65582543  0.14439529  0.67285566  1  -0.917408  0.151414  2.000786  0.211  -0.947461  0.100763  2.331748  0.149  -1.015764  0.079015  2.294945  0.122  -0.597001  -0.891124  0.10586  2.356123  0.152
O  O26  1  0.70051022  0.53386561  0.65049400  1  -0.576704  0.000913  2.013345  0.002  -0.503412  0.000653  2.225855  0.001  -0.529679  -0.000124  2.215048  0.0  -0.304436  -0.485401  0.000676  2.234371  0.001
O  O27  1  0.79951255  0.46611563  0.15053296  1  -0.576607  -0.000911  2.013614  -0.002  -0.503183  -0.000651  2.226031  -0.001  -0.529508  0.000125  2.215273  0.0  -0.304331  -0.485151  -0.000674  2.234536  -0.001
O  O28  1  0.29902896  0.46546599  0.35010467  1  -0.573943  0.001341  2.015386  0.002  -0.502033  0.001334  2.227546  0.002  -0.528151  0.001064  2.216729  0.002  -0.303315  -0.483295  0.00242  2.235689  0.003
O  O29  1  0.20087962  0.53453225  0.85000702  1  -0.5735  -0.001347  2.01508  -0.002  -0.501476  -0.001334  2.22722  -0.002  -0.527592  -0.001062  2.216413  -0.002  -0.303053  -0.482769  -0.002422  2.23539  -0.003
O  O30  1  0.78105165  0.88054238  0.49270381  1  -0.895879  0.086147  2.006329  0.119  -0.909743  0.05552  2.335297  0.08  -0.981184  0.042793  2.301057  0.064  -0.578062  -0.856093  0.06078  2.360918  0.086
O  O31  1  0.71897683  0.11945375  0.99271870  1  -0.89595  -0.086168  2.006271  -0.119  -0.909786  -0.055533  2.335269  -0.08  -0.98125  -0.042805  2.301014  -0.064  -0.578053  -0.8561  -0.060802  2.360886  -0.086
O  O32  1  0.21728214  0.11845442  0.50442955  1  -0.893452  0.050733  2.012975  0.075  -0.91164  0.032269  2.345597  0.051  -0.983858  0.024354  2.311598  0.041  -0.578035  -0.856428  0.041657  2.371821  0.064
O  O33  1  0.28272347  0.88153902  0.00440816  1  -0.893264  -0.050736  2.013027  -0.075  -0.911571  -0.032274  2.345344  -0.051  -0.98383  -0.024362  2.311395  -0.041  -0.577888  -0.856318  -0.041671  2.371558  -0.064
O  O34  1  0.79120874  0.79481504  0.80669859  1  -0.635522  0.040499  2.203888  0.058  -0.618408  0.027624  2.519322  0.043  -0.660738  0.020509  2.504811  0.033  -0.330777  -0.585805  0.030693  2.528115  0.046
O  O35  1  0.70877654  0.20516763  0.30670890  1  -0.635535  -0.040505  2.203725  -0.058  -0.618487  -0.027623  2.519271  -0.043  -0.660802  -0.020507  2.504738  -0.033  -0.33086  -0.585861  -0.030698  2.52803  -0.046
O  O36  1  0.20691637  0.20491907  0.19362608  1  -0.638919  -0.034017  2.212766  -0.052  -0.623516  -0.025334  2.530403  -0.042  -0.666389  -0.018843  2.515549  -0.033  -0.332565  -0.588958  -0.026054  2.538141  -0.041
O  O37  1  0.29310488  0.79510304  0.69358751  1  -0.639003  0.033998  2.213148  0.052  -0.62353  0.02532  2.530805  0.042  -0.666419  0.018831  2.515958  0.033  -0.332669  -0.589032  0.026039  2.538595  0.041
