# generated using pymatgen
data_CuH6C5(NO3)2
_symmetry_space_group_name_H-M   'P 1'
_cell_length_a   6.88582686
_cell_length_b   7.99965219
_cell_length_c   8.39051917
_cell_angle_alpha   106.13530326
_cell_angle_beta   91.89440442
_cell_angle_gamma   112.94186215
_symmetry_Int_Tables_number   1
_chemical_formula_structural   CuH6C5(NO3)2
_chemical_formula_sum   'Cu2 H12 C10 N4 O12'
_cell_volume   403.60478429
_cell_formula_units_Z   2
loop_
 _symmetry_equiv_pos_site_id
 _symmetry_equiv_pos_as_xyz
  1  'x, y, z'
loop_
 _atom_site_type_symbol
 _atom_site_label
 _atom_site_symmetry_multiplicity
 _atom_site_fract_x
 _atom_site_fract_y
 _atom_site_fract_z
 _atom_site_occupancy
 _atom_site_pbe_cm5_charge
 _atom_site_pbe_ddec_charge
 _atom_site_pbe_ddec_spin_density
 _atom_site_pbe_ddec_sum_bond_order
 _atom_site_pbe_magmom
Cu  Cu0  1  0.20987814  0.23817126  0.56361616  1  0.747849  0.938795  -0.769608  2.184665  -0.623
Cu  Cu1  1  0.79011974  0.76182300  0.43638067  1  0.747819  0.938833  -0.769605  2.184585  -0.623
H  H2  1  0.54198212  0.24606571  0.11175621  1  0.122201  0.164753  -0.000535  0.99986  -0.001
H  H3  1  0.45802516  0.75394016  0.88824481  1  0.12222  0.164745  -0.000536  0.999881  -0.001
H  H4  1  0.96571558  0.24139800  0.90551086  1  0.335852  0.289519  -0.000246  0.95773  0.0
H  H5  1  0.03428465  0.75860493  0.09449170  1  0.335866  0.289537  -0.000246  0.957706  0.0
H  H6  1  0.16913091  0.80799137  0.39776833  1  0.292644  0.385655  -0.000207  0.956236  0.0
H  H7  1  0.83087809  0.19201174  0.60223205  1  0.292637  0.385621  -0.000207  0.956294  0.0
H  H8  1  0.15835049  0.60302983  0.66349049  1  0.291038  0.393894  0.000104  0.937596  0.0
H  H9  1  0.84164500  0.39696569  0.33650421  1  0.29102  0.393857  0.000104  0.937652  0.0
H  H10  1  0.33001735  0.61618454  0.54012151  1  0.29132  0.398895  -3.2e-05  0.930237  0.0
H  H11  1  0.66997869  0.38381231  0.45987115  1  0.291322  0.398939  -3.2e-05  0.93018  0.0
H  H12  1  0.12483174  0.83095030  0.59505963  1  0.294287  0.377835  -0.000332  0.966839  0.0
H  H13  1  0.87517370  0.16905441  0.40494942  1  0.294322  0.377856  -0.000333  0.966793  0.0
C  C14  1  0.12537637  0.22501786  0.21800912  1  0.215831  0.556749  -0.000691  4.240694  0.001
C  C15  1  0.87462488  0.77498078  0.78199003  1  0.215831  0.556687  -0.00069  4.240696  0.001
C  C16  1  0.21945644  0.23708067  0.06301342  1  0.097542  0.040082  -0.005683  3.943597  -0.007
C  C17  1  0.78054735  0.76292377  0.93698957  1  0.097555  0.040072  -0.005683  3.943614  -0.007
C  C18  1  0.41809058  0.24354591  0.02684529  1  -0.07973  -0.186782  0.000139  3.877066  0.0
C  C19  1  0.58191259  0.75645710  0.97315735  1  -0.079777  -0.186788  0.000139  3.877267  0.0
C  C20  1  0.42061842  0.25208163  0.86250312  1  0.086131  0.027563  0.001188  4.032762  -0.001
C  C21  1  0.57937965  0.74791974  0.13749664  1  0.086159  0.027604  0.001188  4.032831  -0.001
C  C22  1  0.57743586  0.26406427  0.74534743  1  0.222013  0.568168  0.001974  4.202992  0.002
C  C23  1  0.42256254  0.73593441  0.25465525  1  0.222032  0.56823  0.001974  4.203012  0.002
N  N24  1  0.11461244  0.24074042  0.92398071  1  -0.242095  -0.056525  -0.003562  3.645898  -0.005
N  N25  1  0.88539073  0.75926259  0.07602193  1  -0.242157  -0.05654  -0.003562  3.645919  -0.005
N  N26  1  0.23423259  0.24969566  0.80240681  1  -0.255924  -0.196324  -0.045114  3.51503  -0.059
N  N27  1  0.76576510  0.75030146  0.19759190  1  -0.25589  -0.196339  -0.045116  3.515015  -0.059
O  O28  1  0.94270142  0.22651935  0.22659488  1  -0.312376  -0.549213  0.000715  2.201062  0.0
O  O29  1  0.05729805  0.77347509  0.77340560  1  -0.312357  -0.549131  0.000716  2.201019  0.0
O  O30  1  0.24390225  0.20985868  0.32897360  1  -0.315325  -0.501392  -0.060094  2.336746  -0.088
O  O31  1  0.75609656  0.79013428  0.67102532  1  -0.3153  -0.501375  -0.060092  2.336791  -0.088
O  O32  1  0.75603624  0.26394129  0.78296145  1  -0.296245  -0.505379  -0.008195  2.182076  -0.012
O  O33  1  0.24396310  0.73606297  0.21704022  1  -0.296247  -0.505432  -0.008193  2.182101  -0.012
O  O34  1  0.51631124  0.27365376  0.60220773  1  -0.306418  -0.527394  -0.058327  2.319895  -0.085
O  O35  1  0.48368339  0.72633626  0.39779040  1  -0.306416  -0.527421  -0.058317  2.31998  -0.085
O  O36  1  0.10796943  0.86887250  0.49293026  1  -0.579519  -0.794997  -0.051954  2.324986  -0.075
O  O37  1  0.89202265  0.13113856  0.50707173  1  -0.579517  -0.794904  -0.051946  2.325022  -0.075
O  O38  1  0.24948909  0.54202212  0.61083677  1  -0.609114  -0.823985  0.000448  2.080365  -0.001
O  O39  1  0.75050362  0.45797040  0.38915477  1  -0.609081  -0.823965  0.000447  2.080395  -0.001
