# generated using pymatgen
data_ZnH8C10(SeN3)2
_symmetry_space_group_name_H-M   'P 1'
_cell_length_a   7.04386430
_cell_length_b   7.25942597
_cell_length_c   7.25944247
_cell_angle_alpha   91.00400985
_cell_angle_beta   108.32824745
_cell_angle_gamma   108.32613607
_symmetry_Int_Tables_number   1
_chemical_formula_structural   ZnH8C10(SeN3)2
_chemical_formula_sum   'Zn1 H8 C10 Se2 N6'
_cell_volume   331.70217116
_cell_formula_units_Z   1
loop_
 _symmetry_equiv_pos_site_id
 _symmetry_equiv_pos_as_xyz
  1  'x, y, z'
loop_
 _atom_site_type_symbol
 _atom_site_label
 _atom_site_symmetry_multiplicity
 _atom_site_fract_x
 _atom_site_fract_y
 _atom_site_fract_z
 _atom_site_occupancy
 _atom_site_hle17_bader_spin_density
 _atom_site_hle17_ddec_charge
 _atom_site_hle17_ddec_spin_density
 _atom_site_hle17_ddec_sum_bond_order
 _atom_site_hle17_magmom
 _atom_site_hse06_10hf_bader_spin_density
 _atom_site_hse06_10hf_ddec_charge
 _atom_site_hse06_10hf_ddec_spin_density
 _atom_site_hse06_10hf_ddec_sum_bond_order
 _atom_site_hse06_10hf_magmom
 _atom_site_hse06_bader_spin_density
 _atom_site_hse06_ddec_charge
 _atom_site_hse06_ddec_spin_density
 _atom_site_hse06_ddec_sum_bond_order
 _atom_site_hse06_magmom
 _atom_site_pbe_bader_spin_density
 _atom_site_pbe_cm5_charge
 _atom_site_pbe_ddec_charge
 _atom_site_pbe_ddec_spin_density
 _atom_site_pbe_ddec_sum_bond_order
 _atom_site_pbe_magmom
Zn  Zn0  1  0.99999282  0.49999565  0.49999954  1  0  0.894452  0  2.038584  0  0  0.699682  0  2.486529  0  0  0.742169  0  2.44519  0  0  0.710112  0.670931  0  2.514142  0
H  H1  1  0.69122615  0.28577179  0.06382156  1  0  0.076573  0  0.986881  0  0  0.080283  0  1.059399  0  0  0.082675  0  1.057975  0  0  0.108366  0.078454  0  1.060623  0
H  H2  1  0.30876276  0.93617116  0.71424506  1  0  0.076607  0  0.98723  0  0  0.080279  0  1.059767  0  0  0.082671  0  1.058344  0  0  0.108389  0.078447  0  1.061002  0
H  H3  1  0.30877519  0.71423702  0.93617931  1  0  0.076577  0  0.986821  0  0  0.080306  0  1.059332  0  0  0.082701  0  1.057906  0  0  0.108388  0.078476  0  1.060561  0
H  H4  1  0.69123050  0.06383183  0.28574903  1  0  0.076543  0  0.986983  0  0  0.080244  0  1.059496  0  0  0.082638  0  1.05807  0  0  0.108337  0.078413  0  1.060724  0
H  H5  1  0.71010388  0.28843946  0.72377054  1  0  0.093392  0  0.948275  0  0  0.099826  0  1.012063  0  0  0.102242  0  1.010763  0  0  0.116873  0.098001  0  1.013214  0
H  H6  1  0.28988506  0.27621558  0.71156663  1  0  0.093497  0  0.948442  0  0  0.099892  0  1.012211  0  0  0.102313  0  1.010893  0  0  0.116905  0.098064  0  1.013361  0
H  H7  1  0.28989617  0.71156202  0.27623669  1  0  0.093333  0  0.948216  0  0  0.099754  0  1.01202  0  0  0.102165  0  1.010731  0  0  0.116851  0.097928  0  1.01317  0
H  H8  1  0.71010361  0.72376690  0.28842843  1  0  0.093368  0  0.947991  0  0  0.099717  0  1.011888  0  0  0.102118  0  1.010624  0  0  0.116833  0.09789  0  1.013036  0
C  C9  1  0.50458412  0.29743615  0.29743210  1  0  0.223436  0  3.867762  0  0  0.215328  0  4.170513  0  0  0.239374  0  4.181731  0  0  0.096725  0.199102  0  4.161551  0
C  C10  1  0.49541645  0.70256242  0.70256698  1  0  0.2234  0  3.868697  0  0  0.215283  0  4.171412  0  0  0.239326  0  4.182627  0  0  0.096679  0.19906  0  4.162451  0
C  C11  1  0.83053367  0.38192798  0.03650844  1  0  0.08307  0  3.676783  0  0  0.054372  0  3.930295  0  0  0.05738  0  3.946379  0  0  0.052648  0.052055  0  3.920218  0
C  C12  1  0.16948235  0.96348108  0.61809948  1  0  0.083065  0  3.676468  0  0  0.054302  0  3.930008  0  0  0.05731  0  3.946093  0  0  0.052565  0.051985  0  3.919931  0
C  C13  1  0.16945436  0.61806914  0.96349080  1  0  0.082968  0  3.67702  0  0  0.054218  0  3.930577  0  0  0.057228  0  3.946658  0  0  0.05259  0.051904  0  3.920494  0
C  C14  1  0.83054484  0.03650863  0.38191060  1  0  0.082984  0  3.677173  0  0  0.054274  0  3.930751  0  0  0.057285  0  3.946834  0  0  0.052616  0.051958  0  3.92067  0
C  C15  1  0.83993214  0.38306029  0.84778374  1  0  0.086852  0  3.676742  0  0  0.055618  0  3.932119  0  0  0.05923  0  3.94721  0  0  0.05295  0.052761  0  3.922816  0
C  C16  1  0.16007091  0.15222611  0.61695747  1  0  0.086552  0  3.676894  0  0  0.05541  0  3.932223  0  0  0.059024  0  3.94731  0  0  0.052918  0.052559  0  3.922919  0
C  C17  1  0.16006298  0.61693975  0.15221502  1  0  0.086987  0  3.676727  0  0  0.055783  0  3.932097  0  0  0.059398  0  3.947177  0  0  0.05303  0.052928  0  3.922791  0
C  C18  1  0.83995238  0.84780606  0.38306034  1  0  0.086822  0  3.677294  0  0  0.055629  0  3.932658  0  0  0.059239  0  3.947742  0  0  0.052982  0.052781  0  3.92335  0
Se  Se19  1  0.26342954  0.13117934  0.13117997  1  0  -0.306562  0  1.88718  0  0  -0.3006  0  2.223508  0  0  -0.322424  0  2.222166  0  0  -0.126504  -0.284034  0  2.223563  0
Se  Se20  1  0.73653672  0.86879883  0.86879832  1  0  -0.306615  0  1.887564  0  0  -0.300604  0  2.223824  0  0  -0.322423  0  2.222482  0  0  -0.126486  -0.284038  0  2.22388  0
N  N21  1  0.67047966  0.40451271  0.40450633  1  0  -0.523775  0  2.991484  0  0  -0.46244  0  3.276302  0  0  -0.482988  0  3.280036  0  0  -0.393198  -0.447983  0  3.273056  0
N  N22  1  0.32954158  0.59549751  0.59550635  1  0  -0.523686  0  2.991872  0  0  -0.462349  0  3.276631  0  0  -0.482897  0  3.280365  0  0  -0.39318  -0.447893  0  3.273382  0
N  N23  1  0.99074304  0.49853223  0.18906515  1  0  -0.260098  0  3.248063  0  0  -0.191225  0  3.512066  0  0  -0.20411  0  3.528956  0  0  -0.29689  -0.18261  0  3.501031  0
N  N24  1  0.00923678  0.81092142  0.50145953  1  0  -0.259928  0  3.247933  0  0  -0.19091  0  3.511757  0  0  -0.203796  0  3.528652  0  0  -0.296805  -0.182295  0  3.500721  0
N  N25  1  0.00925707  0.50146925  0.81093797  1  0  -0.259998  0  3.248245  0  0  -0.191114  0  3.512278  0  0  -0.204002  0  3.529174  0  0  -0.296867  -0.182502  0  3.501246  0
N  N26  1  0.99075113  0.18906694  0.49852989  1  0  -0.259819  0  3.248001  0  0  -0.190957  0  3.512  0  0  -0.203844  0  3.528894  0  0  -0.296829  -0.182342  0  3.500966  0
