# generated using pymatgen
data_Cu3H4C5N3Cl2
_symmetry_space_group_name_H-M   'P 1'
_cell_length_a   3.57403816
_cell_length_b   6.80684212
_cell_length_c   17.03026044
_cell_angle_alpha   89.99990294
_cell_angle_beta   89.99969864
_cell_angle_gamma   88.27206410
_symmetry_Int_Tables_number   1
_chemical_formula_structural   Cu3H4C5N3Cl2
_chemical_formula_sum   'Cu6 H8 C10 N6 Cl4'
_cell_volume   414.12230603
_cell_formula_units_Z   2
loop_
 _symmetry_equiv_pos_site_id
 _symmetry_equiv_pos_as_xyz
  1  'x, y, z'
loop_
 _atom_site_type_symbol
 _atom_site_label
 _atom_site_symmetry_multiplicity
 _atom_site_fract_x
 _atom_site_fract_y
 _atom_site_fract_z
 _atom_site_occupancy
 _atom_site_hle17_bader_spin_density
 _atom_site_hle17_ddec_charge
 _atom_site_hle17_ddec_spin_density
 _atom_site_hle17_ddec_sum_bond_order
 _atom_site_hle17_magmom
 _atom_site_hse06_10hf_bader_spin_density
 _atom_site_hse06_10hf_ddec_charge
 _atom_site_hse06_10hf_ddec_spin_density
 _atom_site_hse06_10hf_ddec_sum_bond_order
 _atom_site_hse06_10hf_magmom
 _atom_site_hse06_bader_spin_density
 _atom_site_hse06_ddec_charge
 _atom_site_hse06_ddec_spin_density
 _atom_site_hse06_ddec_sum_bond_order
 _atom_site_hse06_magmom
 _atom_site_pbe_bader_spin_density
 _atom_site_pbe_cm5_charge
 _atom_site_pbe_ddec_charge
 _atom_site_pbe_ddec_spin_density
 _atom_site_pbe_ddec_sum_bond_order
 _atom_site_pbe_magmom
Cu  Cu0  1  0.44927513  0.25100353  0.67593935  1  0  0.353924  0  2.211265  0  0  0.284207  0  2.689958  0  0  0.285068  0  2.636849  0  0  0.382438  0.285898  0  2.724499  0
Cu  Cu1  1  0.44927134  0.25101238  0.82405805  1  0  0.353945  0  2.211174  0  0  0.284409  0  2.689843  0  0  0.285164  0  2.63671  0  0  0.382454  0.285975  0  2.724392  0
Cu  Cu2  1  0.55073054  0.74900005  0.32405977  1  0  0.353935  0  2.211172  0  0  0.284247  0  2.689816  0  0  0.285137  0  2.63666  0  0  0.382461  0.285966  0  2.724461  0
Cu  Cu3  1  0.55071980  0.74900448  0.17594284  1  0  0.353977  0  2.211205  0  0  0.284358  0  2.68985  0  0  0.285192  0  2.636692  0  0  0.382443  0.285946  0  2.724532  0
Cu  Cu4  1  0.22096955  0.89398925  0.74999921  1  0  0.444833  0  2.032674  0  0  0.357467  0  2.527392  0  0  0.369186  0  2.466012  0  0  0.384514  0.351023  0  2.568116  0
Cu  Cu5  1  0.77904123  0.10602606  0.25000109  1  0  0.444637  0  2.032865  0  0  0.357338  0  2.527401  0  0  0.369002  0  2.466195  0  0  0.384492  0.350882  0  2.568163  0
H  H6  1  0.36107970  0.33863288  0.37639244  1  0  0.100789  0  0.972808  0  0  0.108499  0  1.036417  0  0  0.109999  0  1.036611  0  0  0.113226  0.106947  0  1.036906  0
H  H7  1  0.36107779  0.33863770  0.12360476  1  0  0.100867  0  0.972903  0  0  0.108549  0  1.03653  0  0  0.110052  0  1.036719  0  0  0.113196  0.106994  0  1.037019  0
H  H8  1  0.63892390  0.66135307  0.62360375  1  0  0.100861  0  0.972906  0  0  0.108541  0  1.036556  0  0  0.110037  0  1.036751  0  0  0.113182  0.106986  0  1.037044  0
H  H9  1  0.63891395  0.66136447  0.87639672  1  0  0.100851  0  0.9727  0  0  0.10855  0  1.036356  0  0  0.110048  0  1.03655  0  0  0.113181  0.107  0  1.036843  0
H  H10  1  0.71142372  0.83579920  0.49450955  1  0  0.093536  0  0.953641  0  0  0.099016  0  1.023595  0  0  0.101587  0  1.022223  0  0  0.104881  0.096851  0  1.025053  0
H  H11  1  0.71140297  0.83581054  0.00549178  1  0  0.093553  0  0.953541  0  0  0.099014  0  1.023532  0  0  0.101563  0  1.022182  0  0  0.104863  0.096848  0  1.024991  0
H  H12  1  0.28858006  0.16418234  0.50548605  1  0  0.093465  0  0.953533  0  0  0.098873  0  1.023583  0  0  0.101499  0  1.022151  0  0  0.104851  0.096709  0  1.025037  0
H  H13  1  0.28859735  0.16418718  0.99451028  1  0  0.093517  0  0.953548  0  0  0.098975  0  1.023567  0  0  0.101526  0  1.022214  0  0  0.104868  0.096817  0  1.025017  0
C  C14  1  0.43428346  0.46338694  0.74999823  1  0  -0.120317  0  3.745698  0  0  -0.127411  0  4.165632  0  0  -0.103417  0  4.14132  0  0  -0.109301  -0.144241  0  4.181016  0
C  C15  1  0.56571935  0.53661812  0.25000148  1  0  -0.120401  0  3.746013  0  0  -0.127509  0  4.165955  0  0  -0.103549  0  4.141686  0  0  -0.1094  -0.144382  0  4.181473  0
C  C16  1  0.42179963  0.41121091  0.43176718  1  0  0.07688  0  3.636826  0  0  0.052952  0  3.879451  0  0  0.053928  0  3.898803  0  0  0.046712  0.051674  0  3.868191  0
C  C17  1  0.42177603  0.41121030  0.06823251  1  0  0.077013  0  3.636723  0  0  0.053104  0  3.879246  0  0  0.054095  0  3.898604  0  0  0.046825  0.05182  0  3.867973  0
C  C18  1  0.57823464  0.58877785  0.56823136  1  0  0.076996  0  3.636845  0  0  0.053018  0  3.879435  0  0  0.054021  0  3.898798  0  0  0.046793  0.051755  0  3.86815  0
C  C19  1  0.57820178  0.58879047  0.93177190  1  0  0.076956  0  3.636763  0  0  0.052966  0  3.879492  0  0  0.053955  0  3.898822  0  0  0.046758  0.0517  0  3.868205  0
C  C20  1  0.38510588  0.31451706  0.50309341  1  0  0.075585  0  3.650207  0  0  0.04393  0  3.903566  0  0  0.046939  0  3.920145  0  0  0.042852  0.041342  0  3.893943  0
C  C21  1  0.38510082  0.31452058  0.99690324  1  0  0.075395  0  3.650346  0  0  0.043744  0  3.903695  0  0  0.046792  0  3.920284  0  0  0.042767  0.041166  0  3.894047  0
C  C22  1  0.61491428  0.68547469  0.49690219  1  0  0.075222  0  3.650259  0  0  0.043565  0  3.903608  0  0  0.046596  0  3.92018  0  0  0.042689  0.040995  0  3.893965  0
C  C23  1  0.61488545  0.68547867  0.00309882  1  0  0.075254  0  3.650494  0  0  0.043605  0  3.903793  0  0  0.046668  0  3.920413  0  0  0.042715  0.041032  0  3.894151  0
N  N24  1  0.41284071  0.63830982  0.74999668  1  0  -0.371459  0  3.272865  0  0  -0.319973  0  3.622171  0  0  -0.332917  0  3.617722  0  0  -0.454328  -0.310801  0  3.624137  0
N  N25  1  0.58715293  0.36171439  0.25000303  1  0  -0.371173  0  3.273091  0  0  -0.319676  0  3.62235  0  0  -0.332606  0  3.617949  0  0  -0.454121  -0.310495  0  3.624326  0
N  N26  1  0.53774233  0.59732501  0.42827228  1  0  -0.217958  0  3.30781  0  0  -0.147095  0  3.576977  0  0  -0.155545  0  3.588921  0  0  -0.333292  -0.1427  0  3.570207  0
N  N27  1  0.53773488  0.59733909  0.07172870  1  0  -0.218178  0  3.307731  0  0  -0.147241  0  3.576791  0  0  -0.155723  0  3.58879  0  0  -0.333335  -0.142809  0  3.569985  0
N  N28  1  0.46224759  0.40265366  0.57172215  1  0  -0.218268  0  3.307936  0  0  -0.147319  0  3.577036  0  0  -0.15584  0  3.589067  0  0  -0.333417  -0.142888  0  3.570226  0
N  N29  1  0.46225400  0.40266456  0.92827336  1  0  -0.218079  0  3.307823  0  0  -0.147322  0  3.577135  0  0  -0.155734  0  3.58905  0  0  -0.333357  -0.142868  0  3.570295  0
Cl  Cl30  1  0.96303067  0.03062464  0.63947077  1  0  -0.459025  0  1.566379  0  0  -0.396287  0  1.974748  0  0  -0.408124  0  1.931868  0  0  -0.267138  -0.38774  0  2.003722  0
Cl  Cl31  1  0.96303827  0.03062095  0.86052963  1  0  -0.459074  0  1.566328  0  0  -0.396368  0  1.97474  0  0  -0.408194  0  1.93182  0  0  -0.267134  -0.387796  0  2.003685  0
Cl  Cl32  1  0.03695256  0.96938051  0.36053071  1  0  -0.459008  0  1.566343  0  0  -0.396328  0  1.974764  0  0  -0.40817  0  1.931906  0  0  -0.267164  -0.387777  0  2.003786  0
Cl  Cl33  1  0.03695287  0.96939592  0.13947126  1  0  -0.459051  0  1.566373  0  0  -0.396398  0  1.974884  0  0  -0.408235  0  1.931991  0  0  -0.267173  -0.387829  0  2.003885  0
