# generated using pymatgen
data_LiH2C5O4
_symmetry_space_group_name_H-M   'P 1'
_cell_length_a   5.07743069
_cell_length_b   7.15688447
_cell_length_c   7.19253753
_cell_angle_alpha   83.87749548
_cell_angle_beta   76.55302584
_cell_angle_gamma   81.85755694
_symmetry_Int_Tables_number   1
_chemical_formula_structural   LiH2C5O4
_chemical_formula_sum   'Li2 H4 C10 O8'
_cell_volume   250.90009177
_cell_formula_units_Z   2
loop_
 _symmetry_equiv_pos_site_id
 _symmetry_equiv_pos_as_xyz
  1  'x, y, z'
loop_
 _atom_site_type_symbol
 _atom_site_label
 _atom_site_symmetry_multiplicity
 _atom_site_fract_x
 _atom_site_fract_y
 _atom_site_fract_z
 _atom_site_occupancy
 _atom_site_hle17_bader_spin_density
 _atom_site_hle17_ddec_charge
 _atom_site_hle17_ddec_spin_density
 _atom_site_hle17_ddec_sum_bond_order
 _atom_site_hle17_magmom
 _atom_site_hse06_10hf_bader_spin_density
 _atom_site_hse06_10hf_ddec_charge
 _atom_site_hse06_10hf_ddec_spin_density
 _atom_site_hse06_10hf_ddec_sum_bond_order
 _atom_site_hse06_10hf_magmom
 _atom_site_hse06_bader_spin_density
 _atom_site_hse06_ddec_charge
 _atom_site_hse06_ddec_spin_density
 _atom_site_hse06_ddec_sum_bond_order
 _atom_site_hse06_magmom
 _atom_site_pbe_bader_spin_density
 _atom_site_pbe_cm5_charge
 _atom_site_pbe_ddec_charge
 _atom_site_pbe_ddec_spin_density
 _atom_site_pbe_ddec_sum_bond_order
 _atom_site_pbe_magmom
Li  Li0  1  0.74553267  0.53506974  0.38691170  1  0  0.855919  0  0.396337  0  0  0.815043  0  0.503436  0  0  0.825429  0  0.485097  0  0  0.524827  0.807534  0  0.516595  0
Li  Li1  1  0.25446186  0.46492911  0.61308938  1  0  0.855909  0  0.396347  0  0  0.815051  0  0.50342  0  0  0.825435  0  0.485082  0  0  0.524841  0.807545  0  0.516579  0
H  H2  1  0.84956470  0.93898300  0.32942511  1  0  0.395152  0  0.922227  0  0  0.363927  0  0.994589  0  0  0.37594  0  0.978257  0  0  0.30503  0.355544  0  1.005934  0
H  H3  1  0.15043339  0.06101870  0.67057647  1  0  0.395124  0  0.922315  0  0  0.363906  0  0.994628  0  0  0.375918  0  0.978298  0  0  0.30501  0.355523  0  1.005973  0
H  H4  1  0.32653158  0.33656157  0.95819212  1  0  0.119206  0  0.948755  0  0  0.127425  0  1.009798  0  0  0.131772  0  1.006816  0  0  0.128956  0.124333  0  1.011959  0
H  H5  1  0.67346702  0.66343728  0.04180691  1  0  0.119139  0  0.948822  0  0  0.127349  0  1.009872  0  0  0.131694  0  1.006891  0  0  0.128932  0.124256  0  1.012032  0
C  C6  1  0.99082248  0.17972704  0.22838370  1  0  0.672165  0  3.803529  0  0  0.621834  0  4.106305  0  0  0.654608  0  4.097635  0  0  0.249179  0.599677  0  4.111615  0
C  C7  1  0.00918083  0.82025628  0.77162325  1  0  0.671973  0  3.804176  0  0  0.621841  0  4.106635  0  0  0.654612  0  4.09797  0  0  0.249267  0.599697  0  4.111941  0
C  C8  1  0.24912936  0.07412877  0.11779647  1  0  -0.0705  0  3.674868  0  0  -0.059099  0  3.915739  0  0  -0.063675  0  3.935674  0  0  0.003703  -0.056239  0  3.902422  0
C  C9  1  0.75087555  0.92586867  0.88220169  1  0  -0.070183  0  3.674675  0  0  -0.058865  0  3.915505  0  0  -0.063441  0  3.935441  0  0  0.003795  -0.056035  0  3.902241  0
C  C10  1  0.40386410  0.18738128  0.97489099  1  0  -0.049416  0  3.676678  0  0  -0.087767  0  3.930943  0  0  -0.087021  0  3.948207  0  0  -0.055775  -0.088169  0  3.919418  0
C  C11  1  0.59614334  0.81261331  0.02510568  1  0  -0.04945  0  3.676659  0  0  -0.087765  0  3.930908  0  0  -0.087023  0  3.94818  0  0  -0.055777  -0.088164  0  3.919383  0
C  C12  1  0.64992060  0.11965435  0.85526122  1  0  -0.062629  0  3.664769  0  0  -0.049081  0  3.901126  0  0  -0.05321  0  3.920278  0  0  0.007221  -0.046521  0  3.888462  0
C  C13  1  0.35008358  0.88034733  0.14473658  1  0  -0.06244  0  3.664624  0  0  -0.048931  0  3.900948  0  0  -0.053063  0  3.920097  0  0  0.007227  -0.046346  0  3.88824  0
C  C14  1  0.77972840  0.26505889  0.70767887  1  0  0.719653  0  3.838845  0  0  0.668358  0  4.13746  0  0  0.702059  0  4.126552  0  0  0.252828  0.645477  0  4.144386  0
C  C15  1  0.22025626  0.73493855  0.29232398  1  0  0.719514  0  3.838941  0  0  0.668276  0  4.137473  0  0  0.701993  0  4.126535  0  0  0.252801  0.645368  0  4.144426  0
O  O16  1  0.96468563  0.35521473  0.21753280  1  0  -0.615645  0  1.958371  0  0  -0.579947  0  2.192315  0  0  -0.598875  0  2.180819  0  0  -0.340466  -0.566964  0  2.199953  0
O  O17  1  0.03532213  0.64480115  0.78246979  1  0  -0.615358  0  1.959159  0  0  -0.579757  0  2.193048  0  0  -0.598656  0  2.181507  0  0  -0.340379  -0.56678  0  2.200682  0
O  O18  1  0.79429732  0.08661426  0.33134782  1  0  -0.539751  0  2.092065  0  0  -0.489452  0  2.305171  0  0  -0.512428  0  2.290964  0  0  -0.307312  -0.473586  0  2.314553  0
O  O19  1  0.20570991  0.91339311  0.66865303  1  0  -0.539899  0  2.091867  0  0  -0.48968  0  2.304872  0  0  -0.512661  0  2.290665  0  0  -0.307496  -0.473813  0  2.314249  0
O  O20  1  0.62635713  0.39669681  0.64172293  1  0  -0.735396  0  1.986087  0  0  -0.694518  0  2.231017  0  0  -0.713998  0  2.214355  0  0  -0.407256  -0.680984  0  2.242247  0
O  O21  1  0.37362956  0.60330062  0.35827820  1  0  -0.735367  0  1.986042  0  0  -0.694509  0  2.230943  0  0  -0.713994  0  2.21427  0  0  -0.407224  -0.680968  0  2.242187  0
O  O22  1  0.04109021  0.25316088  0.65833418  1  0  -0.688898  0  2.032837  0  0  -0.636854  0  2.265839  0  0  -0.660738  0  2.252416  0  0  -0.360985  -0.620229  0  2.274699  0
O  O23  1  0.95891195  0.74684079  0.34166117  1  0  -0.68882  0  2.033095  0  0  -0.636786  0  2.266077  0  0  -0.660676  0  2.252646  0  0  -0.360949  -0.620157  0  2.274949  0
