# generated using pymatgen
data_KH2CN4O
_symmetry_space_group_name_H-M   'P 1'
_cell_length_a   3.89095629
_cell_length_b   9.77733509
_cell_length_c   11.25589179
_cell_angle_alpha   90.00018345
_cell_angle_beta   90.00008605
_cell_angle_gamma   93.83260382
_symmetry_Int_Tables_number   1
_chemical_formula_structural   KH2CN4O
_chemical_formula_sum   'K4 H8 C4 N16 O4'
_cell_volume   427.25230468
_cell_formula_units_Z   4
loop_
 _symmetry_equiv_pos_site_id
 _symmetry_equiv_pos_as_xyz
  1  'x, y, z'
loop_
 _atom_site_type_symbol
 _atom_site_label
 _atom_site_symmetry_multiplicity
 _atom_site_fract_x
 _atom_site_fract_y
 _atom_site_fract_z
 _atom_site_occupancy
 _atom_site_hle17_bader_spin_density
 _atom_site_hle17_ddec_charge
 _atom_site_hle17_ddec_spin_density
 _atom_site_hle17_ddec_sum_bond_order
 _atom_site_hle17_magmom
 _atom_site_hse06_10hf_bader_spin_density
 _atom_site_hse06_10hf_ddec_charge
 _atom_site_hse06_10hf_ddec_spin_density
 _atom_site_hse06_10hf_ddec_sum_bond_order
 _atom_site_hse06_10hf_magmom
 _atom_site_hse06_bader_spin_density
 _atom_site_hse06_ddec_charge
 _atom_site_hse06_ddec_spin_density
 _atom_site_hse06_ddec_sum_bond_order
 _atom_site_hse06_magmom
 _atom_site_pbe_bader_spin_density
 _atom_site_pbe_cm5_charge
 _atom_site_pbe_ddec_charge
 _atom_site_pbe_ddec_spin_density
 _atom_site_pbe_ddec_sum_bond_order
 _atom_site_pbe_magmom
K  K0  1  0.25490890  0.83105174  0.90437381  1  0  0.912621  0  0.486182  0  0  0.841765  0  0.7024  0  0  0.855996  0  0.680725  0  0  0.840913  0.830336  0  0.718921  0
K  K1  1  0.74509053  0.66894738  0.40437512  1  0  0.912605  0  0.486179  0  0  0.841757  0  0.702385  0  0  0.855985  0  0.680713  0  0  0.840909  0.830325  0  0.718907  0
K  K2  1  0.74509286  0.16894884  0.09562590  1  0  0.912612  0  0.486166  0  0  0.841736  0  0.702412  0  0  0.855968  0  0.680737  0  0  0.8409  0.830307  0  0.718933  0
K  K3  1  0.25491093  0.33105115  0.59562637  1  0  0.912605  0  0.486186  0  0  0.841747  0  0.702396  0  0  0.85598  0  0.680721  0  0  0.840914  0.83032  0  0.718918  0
H  H4  1  0.92702434  0.89117985  0.15362591  1  0  0.373836  0  0.954981  0  0  0.333114  0  1.036447  0  0  0.344041  0  1.020553  0  0  0.281931  0.325309  0  1.047811  0
H  H5  1  0.07297416  0.60882037  0.65362744  1  0  0.373819  0  0.955026  0  0  0.333082  0  1.036505  0  0  0.344009  0  1.020615  0  0  0.281904  0.325276  0  1.047873  0
H  H6  1  0.07297470  0.10881970  0.84637202  1  0  0.373835  0  0.955006  0  0  0.333095  0  1.036491  0  0  0.344023  0  1.020598  0  0  0.281912  0.32529  0  1.047858  0
H  H7  1  0.92702488  0.39117918  0.34637227  1  0  0.373824  0  0.955  0  0  0.333091  0  1.036486  0  0  0.344018  0  1.020593  0  0  0.281915  0.325285  0  1.047853  0
H  H8  1  0.64556341  0.78574909  0.10007596  1  0  0.375088  0  0.954288  0  0  0.335198  0  1.035461  0  0  0.346292  0  1.019241  0  0  0.274519  0.327242  0  1.047098  0
H  H9  1  0.35443452  0.71424887  0.60007792  1  0  0.375069  0  0.95432  0  0  0.335176  0  1.035496  0  0  0.346271  0  1.019275  0  0  0.274496  0.327221  0  1.047132  0
H  H10  1  0.35443789  0.21424842  0.89992287  1  0  0.375061  0  0.954331  0  0  0.33517  0  1.035506  0  0  0.346265  0  1.019286  0  0  0.274498  0.327214  0  1.047144  0
H  H11  1  0.64556210  0.28575169  0.39992356  1  0  0.375065  0  0.954325  0  0  0.335177  0  1.035495  0  0  0.346271  0  1.019276  0  0  0.274499  0.32722  0  1.047134  0
C  C12  1  0.58050702  0.99430520  0.55767924  1  0  0.230789  0  3.825681  0  0  0.209496  0  4.100955  0  0  0.217398  0  4.116886  0  0  0.217309  0.204002  0  4.090275  0
C  C13  1  0.41949358  0.50569465  0.05767905  1  0  0.230821  0  3.825648  0  0  0.209517  0  4.100959  0  0  0.217417  0  4.116898  0  0  0.217301  0.20402  0  4.090281  0
C  C14  1  0.41949202  0.00569435  0.44232136  1  0  0.230751  0  3.825757  0  0  0.209567  0  4.100934  0  0  0.217474  0  4.116861  0  0  0.217332  0.204071  0  4.090253  0
C  C15  1  0.58050803  0.49430490  0.94232066  1  0  0.230722  0  3.825769  0  0  0.209536  0  4.10095  0  0  0.217436  0  4.116891  0  0  0.217315  0.20404  0  4.090273  0
N  N16  1  0.60454729  0.87557742  0.61686231  1  0  -0.302865  0  3.050884  0  0  -0.257117  0  3.317809  0  0  -0.268534  0  3.330982  0  0  -0.233009  -0.249188  0  3.309104  0
N  N17  1  0.39545103  0.62442265  0.11686243  1  0  -0.302895  0  3.050862  0  0  -0.257149  0  3.317793  0  0  -0.268565  0  3.330965  0  0  -0.232968  -0.24922  0  3.309088  0
N  N18  1  0.39545447  0.12442316  0.38313829  1  0  -0.302876  0  3.050984  0  0  -0.257157  0  3.317879  0  0  -0.268577  0  3.331051  0  0  -0.232995  -0.249228  0  3.309173  0
N  N19  1  0.60455058  0.37557691  0.88313817  1  0  -0.302872  0  3.050912  0  0  -0.257151  0  3.317813  0  0  -0.268567  0  3.330986  0  0  -0.232975  -0.249221  0  3.30911  0
N  N20  1  0.77025298  0.91076985  0.71809383  1  0  -0.184636  0  3.061242  0  0  -0.17129  0  3.357943  0  0  -0.173358  0  3.371071  0  0  -0.208983  -0.169304  0  3.348866  0
N  N21  1  0.22974584  0.58923061  0.21809377  1  0  -0.184509  0  3.061145  0  0  -0.171151  0  3.357829  0  0  -0.173217  0  3.370954  0  0  -0.20894  -0.169164  0  3.348748  0
N  N22  1  0.22974606  0.08922970  0.28190677  1  0  -0.184529  0  3.061296  0  0  -0.171169  0  3.357988  0  0  -0.173235  0  3.371113  0  0  -0.208943  -0.169182  0  3.348907  0
N  N23  1  0.77025577  0.41076894  0.78190594  1  0  -0.184539  0  3.061167  0  0  -0.171181  0  3.357856  0  0  -0.173248  0  3.370981  0  0  -0.20894  -0.169194  0  3.348777  0
N  N24  1  0.84044065  0.04501193  0.71915254  1  0  -0.098357  0  3.136941  0  0  -0.058774  0  3.417545  0  0  -0.061508  0  3.430308  0  0  -0.110338  -0.056453  0  3.408552  0
N  N25  1  0.15955877  0.45498954  0.21915168  1  0  -0.098494  0  3.137031  0  0  -0.058913  0  3.41765  0  0  -0.061649  0  3.430415  0  0  -0.110399  -0.056593  0  3.408656  0
N  N26  1  0.15955855  0.95498864  0.28084806  1  0  -0.098457  0  3.137065  0  0  -0.058887  0  3.417704  0  0  -0.06162  0  3.430468  0  0  -0.11038  -0.056569  0  3.408708  0
N  N27  1  0.84044043  0.54501103  0.78084803  1  0  -0.098474  0  3.136983  0  0  -0.058901  0  3.417615  0  0  -0.061634  0  3.43038  0  0  -0.110412  -0.056579  0  3.408624  0
N  N28  1  0.72585563  0.10131581  0.61936929  1  0  -0.376868  0  3.024645  0  0  -0.35696  0  3.318305  0  0  -0.36716  0  3.331403  0  0  -0.319862  -0.349575  0  3.309533  0
N  N29  1  0.27414314  0.39868425  0.11936833  1  0  -0.376854  0  3.024671  0  0  -0.356932  0  3.31832  0  0  -0.367129  0  3.33142  0  0  -0.319859  -0.349544  0  3.309548  0
N  N30  1  0.27414341  0.89868374  0.38063131  1  0  -0.376832  0  3.024736  0  0  -0.356944  0  3.318361  0  0  -0.367145  0  3.331462  0  0  -0.319845  -0.349558  0  3.309589  0
N  N31  1  0.72585590  0.60131530  0.88063138  1  0  -0.37679  0  3.024662  0  0  -0.356899  0  3.318293  0  0  -0.367097  0  3.331394  0  0  -0.319833  -0.349512  0  3.309522  0
O  O32  1  0.78302980  0.87279962  0.08116246  1  0  -0.929587  0  1.871706  0  0  -0.875445  0  2.068762  0  0  -0.893182  0  2.036814  0  0  -0.742502  -0.86238  0  2.091751  0
O  O33  1  0.21697786  0.62719522  0.58116501  1  0  -0.929561  0  1.871688  0  0  -0.875403  0  2.068785  0  0  -0.893143  0  2.036835  0  0  -0.742453  -0.86234  0  2.091767  0
O  O34  1  0.21697891  0.12719586  0.91883547  1  0  -0.929576  0  1.871688  0  0  -0.875407  0  2.068771  0  0  -0.893147  0  2.036822  0  0  -0.742461  -0.862345  0  2.091752  0
O  O35  1  0.78302118  0.37280433  0.41883559  1  0  -0.929548  0  1.871701  0  0  -0.875392  0  2.068733  0  0  -0.893128  0  2.036787  0  0  -0.742468  -0.862328  0  2.091719  0
