# generated using pymatgen
data_LiH7C4N2O3
_symmetry_space_group_name_H-M   'P 1'
_cell_length_a   4.97404483
_cell_length_b   7.68635031
_cell_length_c   8.87663199
_cell_angle_alpha   106.65498219
_cell_angle_beta   90.00021339
_cell_angle_gamma   90.00079179
_symmetry_Int_Tables_number   1
_chemical_formula_structural   LiH7C4N2O3
_chemical_formula_sum   'Li2 H14 C8 N4 O6'
_cell_volume   325.13621378
_cell_formula_units_Z   2
loop_
 _symmetry_equiv_pos_site_id
 _symmetry_equiv_pos_as_xyz
  1  'x, y, z'
loop_
 _atom_site_type_symbol
 _atom_site_label
 _atom_site_symmetry_multiplicity
 _atom_site_fract_x
 _atom_site_fract_y
 _atom_site_fract_z
 _atom_site_occupancy
 _atom_site_hle17_bader_spin_density
 _atom_site_hle17_ddec_charge
 _atom_site_hle17_ddec_spin_density
 _atom_site_hle17_ddec_sum_bond_order
 _atom_site_hle17_magmom
 _atom_site_hse06_10hf_bader_spin_density
 _atom_site_hse06_10hf_ddec_charge
 _atom_site_hse06_10hf_ddec_spin_density
 _atom_site_hse06_10hf_ddec_sum_bond_order
 _atom_site_hse06_10hf_magmom
 _atom_site_hse06_bader_spin_density
 _atom_site_hse06_ddec_charge
 _atom_site_hse06_ddec_spin_density
 _atom_site_hse06_ddec_sum_bond_order
 _atom_site_hse06_magmom
 _atom_site_pbe_bader_spin_density
 _atom_site_pbe_cm5_charge
 _atom_site_pbe_ddec_charge
 _atom_site_pbe_ddec_spin_density
 _atom_site_pbe_ddec_sum_bond_order
 _atom_site_pbe_magmom
Li  Li0  1  0.45485936  0.62026032  0.48684529  1  0  0.848129  0  0.414644  0  0  0.808047  0  0.522184  0  0  0.817524  0  0.505598  0  0  0.509114  0.801116  0  0.534355  0
Li  Li1  1  0.95485923  0.37973838  0.51314737  1  0  0.848162  0  0.414606  0  0  0.808063  0  0.52219  0  0  0.817541  0  0.505603  0  0  0.509111  0.801129  0  0.534365  0
H  H2  1  0.90887751  0.81271344  0.76026551  1  0  0.278863  0  0.915988  0  0  0.276707  0  0.966141  0  0  0.281112  0  0.963653  0  0  0.296439  0.273728  0  0.967685  0
H  H3  1  0.40889579  0.18727633  0.23973545  1  0  0.278937  0  0.915823  0  0  0.276722  0  0.966055  0  0  0.281129  0  0.963564  0  0  0.296447  0.273744  0  0.9676  0
H  H4  1  0.06823693  0.63011831  0.77345353  1  0  0.289996  0  0.96323  0  0  0.275326  0  1.03432  0  0  0.282733  0  1.027593  0  0  0.288909  0.270081  0  1.039097  0
H  H5  1  0.56825179  0.36987771  0.22655188  1  0  0.289936  0  0.963149  0  0  0.275246  0  1.034269  0  0  0.282652  0  1.027546  0  0  0.288872  0.270004  0  1.03904  0
H  H6  1  0.42508482  0.19043342  0.93598611  1  0  0.270404  0  0.946214  0  0  0.249232  0  1.018505  0  0  0.257306  0  1.012585  0  0  0.293891  0.243098  0  1.023142  0
H  H7  1  0.92509068  0.80956952  0.06401177  1  0  0.270392  0  0.946214  0  0  0.249224  0  1.018484  0  0  0.257299  0  1.01256  0  0  0.293881  0.24309  0  1.023122  0
H  H8  1  0.42750833  0.77576418  0.90127315  1  0  0.091542  0  0.90566  0  0  0.111098  0  0.959109  0  0  0.112729  0  0.958216  0  0  0.119461  0.109803  0  0.960003  0
H  H9  1  0.92751835  0.22424042  0.09872845  1  0  0.091569  0  0.90551  0  0  0.111128  0  0.959001  0  0  0.112759  0  0.958105  0  0  0.119487  0.109831  0  0.959895  0
H  H10  1  0.24292131  0.97519193  0.98856287  1  0  0.055636  0  0.986642  0  0  0.066153  0  1.061125  0  0  0.066754  0  1.062027  0  0  0.10153  0.065745  0  1.060679  0
H  H11  1  0.74292897  0.02481192  0.01144354  1  0  0.055664  0  0.986698  0  0  0.066204  0  1.061194  0  0  0.066787  0  1.062112  0  0  0.101543  0.065795  0  1.060747  0
H  H12  1  0.70186221  0.12824532  0.62770641  1  0  0.118623  0  0.926183  0  0  0.129717  0  0.988968  0  0  0.13314  0  0.985926  0  0  0.132067  0.127099  0  0.991574  0
H  H13  1  0.20186777  0.87176107  0.37230146  1  0  0.11857  0  0.926205  0  0  0.129638  0  0.988979  0  0  0.133085  0  0.985911  0  0  0.132051  0.127018  0  0.991587  0
H  H14  1  0.77813702  0.29983609  0.80234846  1  0  0.108612  0  0.913676  0  0  0.123098  0  0.971077  0  0  0.12539  0  0.969142  0  0  0.122255  0.121537  0  0.972449  0
H  H15  1  0.27815492  0.70017855  0.19765675  1  0  0.108645  0  0.913703  0  0  0.123055  0  0.97115  0  0  0.125338  0  0.969226  0  0  0.122253  0.121494  0  0.97252  0
C  C16  1  0.27227186  0.86711465  0.87788754  1  0  -0.060965  0  3.717475  0  0  -0.116396  0  3.980771  0  0  -0.115845  0  3.988396  0  0  -0.067993  -0.116881  0  3.975489  0
C  C17  1  0.77227712  0.13288244  0.12211544  1  0  -0.060954  0  3.717641  0  0  -0.116501  0  3.981036  0  0  -0.115933  0  3.98866  0  0  -0.068012  -0.116987  0  3.975758  0
C  C18  1  0.39294142  0.95327265  0.75868405  1  0  0.555442  0  3.80891  0  0  0.51565  0  4.099017  0  0  0.543889  0  4.098126  0  0  0.24584  0.496597  0  4.09927  0
C  C19  1  0.89296043  0.04671703  0.24130103  1  0  0.555308  0  3.80872  0  0  0.515597  0  4.098782  0  0  0.543833  0  4.097896  0  0  0.245777  0.496543  0  4.099037  0
C  C20  1  0.61087153  0.22705329  0.72998728  1  0  -0.118243  0  3.650487  0  0  -0.175048  0  3.900233  0  0  -0.174731  0  3.906605  0  0  -0.053499  -0.175463  0  3.896163  0
C  C21  1  0.11088784  0.77294912  0.27001159  1  0  -0.118206  0  3.650573  0  0  -0.174862  0  3.900208  0  0  -0.17456  0  3.906571  0  0  -0.053455  -0.175269  0  3.89613  0
C  C22  1  0.45327142  0.36315784  0.66774126  1  0  0.724683  0  3.854744  0  0  0.684306  0  4.152825  0  0  0.715671  0  4.144269  0  0  0.232935  0.663077  0  4.157885  0
C  C23  1  0.95327671  0.63684211  0.33225051  1  0  0.724731  0  3.854868  0  0  0.684285  0  4.153015  0  0  0.71565  0  4.144462  0  0  0.232919  0.663054  0  4.158072  0
N  N24  1  0.02442763  0.76250639  0.83334949  1  0  -0.632368  0  3.007619  0  0  -0.605355  0  3.242603  0  0  -0.619282  0  3.239595  0  0  -0.617736  -0.595021  0  3.244247  0
N  N25  1  0.52444227  0.23748779  0.16665315  1  0  -0.632373  0  3.007396  0  0  -0.605261  0  3.242479  0  0  -0.619189  0  3.239468  0  0  -0.617708  -0.594929  0  3.244118  0
N  N26  1  0.45620528  0.12977601  0.81730624  1  0  -0.381599  0  3.370503  0  0  -0.321101  0  3.611326  0  0  -0.342597  0  3.622226  0  0  -0.413615  -0.306275  0  3.603921  0
N  N27  1  0.95622539  0.87022742  0.18269524  1  0  -0.381532  0  3.370649  0  0  -0.321064  0  3.611395  0  0  -0.342555  0  3.622292  0  0  -0.413605  -0.306243  0  3.603995  0
O  O28  1  0.43976493  0.86445214  0.61925160  1  0  -0.645929  0  1.956772  0  0  -0.606029  0  2.1887  0  0  -0.625476  0  2.178993  0  0  -0.370574  -0.592753  0  2.195517  0
O  O29  1  0.93979309  0.13555059  0.38075872  1  0  -0.64598  0  1.956193  0  0  -0.606078  0  2.18806  0  0  -0.62553  0  2.178358  0  0  -0.370583  -0.592796  0  2.194878  0
O  O30  1  0.20252407  0.37987680  0.68904277  1  0  -0.701508  0  1.953414  0  0  -0.654489  0  2.182503  0  0  -0.676734  0  2.171282  0  0  -0.368248  -0.639055  0  2.18993  0
O  O31  1  0.70253079  0.62013318  0.31096015  1  0  -0.701535  0  1.953464  0  0  -0.6545  0  2.182605  0  0  -0.676734  0  2.171364  0  0  -0.368275  -0.63907  0  2.190032  0
O  O32  1  0.59543465  0.45155423  0.59467313  1  0  -0.801332  0  1.960718  0  0  -0.760931  0  2.209635  0  0  -0.781602  0  2.194446  0  0  -0.45077  -0.746446  0  2.219821  0
O  O33  1  0.09544039  0.54843204  0.40530907  1  0  -0.80132  0  1.960704  0  0  -0.760882  0  2.209597  0  0  -0.781554  0  2.194413  0  0  -0.45071  -0.746396  0  2.21978  0
