# generated using pymatgen
data_FeH10C4(NCl)2
_symmetry_space_group_name_H-M   'P 1'
_cell_length_a   6.31272281
_cell_length_b   7.93415596
_cell_length_c   7.93068130
_cell_angle_alpha   107.42525057
_cell_angle_beta   90.43005452
_cell_angle_gamma   90.45835658
_symmetry_Int_Tables_number   1
_chemical_formula_structural   FeH10C4(NCl)2
_chemical_formula_sum   'Fe2 H20 C8 N4 Cl4'
_cell_volume   378.95566667
_cell_formula_units_Z   2
loop_
 _symmetry_equiv_pos_site_id
 _symmetry_equiv_pos_as_xyz
  1  'x, y, z'
loop_
 _atom_site_type_symbol
 _atom_site_label
 _atom_site_symmetry_multiplicity
 _atom_site_fract_x
 _atom_site_fract_y
 _atom_site_fract_z
 _atom_site_occupancy
 _atom_site_pbe_bader_charge
 _atom_site_pbe_bader_spin_density
 _atom_site_pbe_cm5_charge
 _atom_site_pbe_ddec_charge
 _atom_site_pbe_ddec_spin_density
 _atom_site_pbe_ddec_sum_bond_order
 _atom_site_pbe_magmom
Fe  Fe0  1  0.74967342  0.57155978  0.42867902  1  1.194887  3.571388  0.479418  0.642643  3.795525  2.566847  3.522
Fe  Fe1  1  0.25029059  0.42844516  0.57139942  1  1.194709  3.571307  0.479523  0.642475  3.795402  2.5667  3.521
H  H2  1  0.42677557  0.49287660  0.22803330  1  0.433733  0.001456  0.264966  0.230147  0.000438  1.013719  0.001
H  H3  1  0.07293483  0.77173201  0.50714453  1  0.433851  0.001461  0.265107  0.230312  0.000438  1.012992  0.001
H  H4  1  0.57316489  0.50704197  0.77188608  1  0.434279  0.001459  0.265072  0.230188  0.000438  1.01367  0.001
H  H5  1  0.92712402  0.22832216  0.49288329  1  0.433928  0.001456  0.265175  0.230318  0.000438  1.013356  0.001
H  H6  1  0.65117715  0.25473428  0.08632491  1  0.068344  0.002052  0.097408  0.09384  0.000501  0.990396  0.001
H  H7  1  0.84884476  0.91374366  0.74527136  1  0.068302  0.002042  0.097597  0.094043  0.000497  0.990331  0.001
H  H8  1  0.34891058  0.74523792  0.91368710  1  0.068965  0.002051  0.09746  0.09383  0.000501  0.990539  0.001
H  H9  1  0.15108442  0.08621937  0.25473710  1  0.068251  0.002043  0.097574  0.094035  0.000497  0.99077  0.001
H  H10  1  0.78619697  0.39708279  0.98605584  1  0.064141  0.001477  0.093142  0.078065  0.000334  1.020458  0.0
H  H11  1  0.71375762  0.01365672  0.60267584  1  0.062824  0.001487  0.093345  0.078373  0.000336  1.02114  0.0
H  H12  1  0.21390237  0.60293164  0.01397424  1  0.06421  0.001475  0.093305  0.078262  0.000334  1.020846  0.0
H  H13  1  0.28618648  0.98631586  0.39728528  1  0.063362  0.001485  0.093409  0.078282  0.000336  1.021202  0.0
H  H14  1  0.68442335  0.70952887  0.06409112  1  0.04963  0.001181  0.101973  0.083951  0.000286  1.001021  0.0
H  H15  1  0.81608613  0.93506586  0.28955439  1  0.04855  0.001191  0.101574  0.082994  0.00029  1.000953  0.0
H  H16  1  0.31564191  0.29045758  0.93597160  1  0.04994  0.001185  0.10191  0.08381  0.000287  1.000943  0.0
H  H17  1  0.18382872  0.06490762  0.71047725  1  0.048975  0.001193  0.101691  0.083126  0.000292  1.000944  0.0
H  H18  1  0.48356631  0.78763999  0.22487534  1  0.043016  0.002041  0.102704  0.088392  0.000492  1.000227  0.001
H  H19  1  0.01784053  0.77508367  0.21253561  1  0.066782  0.001999  0.102406  0.087899  0.00048  1.001099  0.001
H  H20  1  0.51644381  0.21232438  0.77512195  1  0.043681  0.002038  0.1027  0.088435  0.000491  1.00025  0.001
H  H21  1  0.98209271  0.22492967  0.78746934  1  0.066483  0.002001  0.102505  0.088024  0.00048  1.001056  0.001
C  C22  1  0.63175522  0.36721922  0.03412729  1  0.219579  0.007613  -0.082883  -0.061342  0.003685  3.879968  0.005
C  C23  1  0.86815056  0.96583837  0.63269503  1  0.221718  0.007573  -0.083529  -0.062363  0.003674  3.882438  0.005
C  C24  1  0.36827403  0.63276750  0.96589471  1  0.218863  0.007606  -0.083041  -0.061449  0.003683  3.880809  0.005
C  C25  1  0.13182269  0.03420140  0.36731345  1  0.221996  0.007558  -0.083337  -0.062031  0.003668  3.88398  0.005
C  C26  1  0.53353570  0.67511688  0.11432961  1  0.298285  0.00725  -0.075686  -0.051342  0.003716  3.864986  0.005
C  C27  1  0.96697924  0.88551474  0.32477103  1  0.261332  0.007298  -0.074831  -0.049604  0.00371  3.865958  0.005
C  C28  1  0.46647857  0.32488607  0.88563663  1  0.297284  0.007258  -0.075646  -0.051283  0.00372  3.864575  0.005
C  C29  1  0.03301844  0.11454375  0.67520438  1  0.261076  0.007287  -0.075116  -0.049897  0.003707  3.866278  0.005
N  N30  1  0.57065339  0.52288028  0.18195242  1  -1.088428  0.066829  -0.4958  -0.312353  0.031468  3.463708  0.042
N  N31  1  0.92932276  0.81802495  0.47706113  1  -1.075726  0.066818  -0.495746  -0.312347  0.031478  3.46435  0.042
N  N32  1  0.42931766  0.47710278  0.81802359  1  -1.089326  0.066889  -0.495984  -0.312324  0.031486  3.464249  0.042
N  N33  1  0.07067843  0.18195026  0.52289899  1  -1.076164  0.066822  -0.495867  -0.312328  0.031486  3.46626  0.042
Cl  Cl34  1  0.42323150  0.72149115  0.57405033  1  -0.685205  0.124554  -0.245641  -0.470694  0.061424  1.438731  0.082
Cl  Cl35  1  0.07725169  0.42630668  0.27879365  1  -0.685437  0.124176  -0.24573  -0.470958  0.061226  1.437041  0.081
Cl  Cl36  1  0.57683960  0.27869605  0.42608003  1  -0.685265  0.124673  -0.245543  -0.47045  0.061464  1.439619  0.082
Cl  Cl37  1  0.92273096  0.57362162  0.72104601  1  -0.685424  0.124327  -0.245581  -0.470678  0.061297  1.438591  0.081
