# generated using pymatgen
data_CuH14C8(NO3)2
_symmetry_space_group_name_H-M   'P 1'
_cell_length_a   5.16314926
_cell_length_b   7.27015618
_cell_length_c   7.50055750
_cell_angle_alpha   105.82577331
_cell_angle_beta   99.45905859
_cell_angle_gamma   100.72276607
_symmetry_Int_Tables_number   1
_chemical_formula_structural   CuH14C8(NO3)2
_chemical_formula_sum   'Cu1 H14 C8 N2 O6'
_cell_volume   259.16525811
_cell_formula_units_Z   1
loop_
 _symmetry_equiv_pos_site_id
 _symmetry_equiv_pos_as_xyz
  1  'x, y, z'
loop_
 _atom_site_type_symbol
 _atom_site_label
 _atom_site_symmetry_multiplicity
 _atom_site_fract_x
 _atom_site_fract_y
 _atom_site_fract_z
 _atom_site_occupancy
 _atom_site_hle17_ddec_charge
 _atom_site_hle17_ddec_spin_density
 _atom_site_hle17_ddec_sum_bond_order
 _atom_site_hle17_magmom
 _atom_site_hse06_10hf_bader_charge
 _atom_site_hse06_10hf_bader_spin_density
 _atom_site_hse06_10hf_ddec_charge
 _atom_site_hse06_10hf_ddec_spin_density
 _atom_site_hse06_10hf_ddec_sum_bond_order
 _atom_site_hse06_10hf_magmom
 _atom_site_hse06_ddec_charge
 _atom_site_hse06_ddec_spin_density
 _atom_site_hse06_ddec_sum_bond_order
 _atom_site_hse06_magmom
 _atom_site_pbe_cm5_charge
 _atom_site_pbe_ddec_charge
 _atom_site_pbe_ddec_spin_density
 _atom_site_pbe_ddec_sum_bond_order
 _atom_site_pbe_magmom
Cu  Cu0  1  0.50001784  0.49999707  0.49999761  1  0.842389  -0.654203  1.722766  -0.486  1.092835  -0.62455  0.832898  -0.765959  2.095248  -0.62  0.932286  -0.839145  2.029702  -0.718  0.707318  0.766829  -0.710364  2.144252  -0.554
H  H1  1  0.39421919  0.12899479  0.96053065  1  0.052936  0.000259  0.939933  0.0  0.055594  0.000136  0.070023  0.000106  1.002949  0.0  0.071468  0.00011  1.001399  0.0  0.099095  0.068552  8.2e-05  1.004606  0.0
H  H2  1  0.60575138  0.87100419  0.03945748  1  0.053014  0.000253  0.939955  0.0  0.055774  0.000136  0.07006  0.000106  1.002953  0.0  0.07151  0.000111  1.001398  0.0  0.09906  0.068586  8.2e-05  1.004617  0.0
H  H3  1  0.58150541  0.37887444  0.05456240  1  0.051807  -4e-05  0.933173  0.0  0.025174  -5.2e-05  0.070734  -1e-05  0.994203  0.0  0.070917  2.3e-05  0.994362  0.0  0.099074  0.070705  -6.6e-05  0.993972  0.0
H  H4  1  0.41846304  0.62112454  0.94541083  1  0.051909  -4.4e-05  0.933193  0.0  0.025225  -5.2e-05  0.070752  -1e-05  0.99426  0.0  0.070936  2.4e-05  0.994419  0.0  0.099061  0.070722  -6.6e-05  0.994026  0.0
H  H5  1  0.08097233  0.34487427  0.98128242  1  0.059959  -0.004203  0.946457  -0.005  0.047628  -0.005786  0.077568  -0.003059  1.011417  -0.004  0.07868  -0.002227  1.010364  -0.003  0.099283  0.076199  -0.003518  1.012601  -0.004
H  H6  1  0.91899112  0.65512625  0.01872401  1  0.060028  -0.004201  0.946355  -0.005  0.047618  -0.005785  0.077545  -0.003058  1.01145  -0.004  0.07865  -0.002227  1.010411  -0.003  0.099286  0.076181  -0.003518  1.012625  -0.004
H  H7  1  0.04127854  0.20519007  0.13811078  1  0.075284  0.000102  0.928763  0.0  0.081095  -5.9e-05  0.093838  0.000108  0.987501  0.0  0.094491  8.5e-05  0.987602  0.0  0.106922  0.092925  0.000115  0.987807  0.0
H  H8  1  0.95870445  0.79480443  0.86189750  1  0.07527  0.000103  0.928788  0.0  0.08112  -5.9e-05  0.093835  0.000107  0.987525  0.0  0.094486  8.5e-05  0.987631  0.0  0.106926  0.092924  0.000115  0.987833  0.0
H  H9  1  0.05298206  0.51598905  0.32035252  1  0.305598  0.000902  0.919291  0.001  0.496159  0.000161  0.295103  -0.000212  0.97954  0.0  0.303493  0.000152  0.974172  0.0  0.291717  0.289057  -0.000525  0.983838  0.0
H  H10  1  0.94703971  0.48400964  0.67966373  1  0.305713  0.000903  0.919164  0.001  0.496013  0.000162  0.295232  -0.000211  0.979333  0.0  0.30362  0.000154  0.973962  0.0  0.29181  0.289195  -0.000523  0.98361  0.0
H  H11  1  0.29985676  0.62914586  0.24822670  1  0.288195  0.00127  0.925186  0.001  0.461723  0.000181  0.278405  6.9e-05  0.98862  0.0  0.286774  0.000376  0.982981  0.0  0.288036  0.272226  -0.000216  0.993208  0.0
H  H12  1  0.70014526  0.37084703  0.75177921  1  0.288205  0.001268  0.92518  0.001  0.461445  0.000178  0.278411  6.7e-05  0.988603  0.0  0.286774  0.000374  0.982969  0.0  0.288043  0.272244  -0.000218  0.993178  0.0
H  H13  1  0.47690188  0.11270234  0.26930730  1  0.351477  0.000163  0.956396  0.0  0.653658  5.6e-05  0.327454  0.000124  1.032857  0.0  0.338365  0.000152  1.021651  0.0  0.284872  0.319742  -2e-06  1.040557  0.0
H  H14  1  0.52311374  0.88730226  0.73067919  1  0.351501  0.000164  0.956391  0.0  0.653595  5.6e-05  0.327523  0.000123  1.032814  0.0  0.338436  0.000152  1.021604  0.0  0.284887  0.319807  -2e-06  1.040529  0.0
C  C15  1  0.44265540  0.26278557  0.08462500  1  0.111855  -0.001388  3.651166  -0.002  0.467342  -0.001783  0.054428  -0.001085  3.927429  -0.002  0.061045  -0.00075  3.932634  -0.001  -0.083711  0.049976  -0.001327  3.923787  -0.002
C  C16  1  0.55731618  0.73721635  0.91536268  1  0.11154  -0.001376  3.651571  -0.002  0.467359  -0.001786  0.05433  -0.001087  3.927647  -0.002  0.060944  -0.000753  3.932853  -0.001  -0.08369  0.049877  -0.001328  3.924004  -0.002
C  C17  1  0.18181558  0.32366391  0.11300167  1  0.023672  0.002891  3.65358  0.003  0.252608  -0.000543  -0.033292  -8.6e-05  3.92456  0.001  -0.028582  0.000849  3.935987  0.002  -0.085714  -0.03578  -0.00087  3.917464  0.0
C  C18  1  0.81816825  0.67632762  0.88699791  1  0.02383  0.002884  3.653515  0.003  0.252648  -0.000541  -0.033159  -8.4e-05  3.9246  0.001  -0.02845  0.000852  3.936022  0.002  -0.085622  -0.035643  -0.000869  3.917518  0.0
C  C19  1  0.90734725  0.85060598  0.46360401  1  0.200583  0.000723  3.821958  0.0  0.809168  -0.002107  0.178528  -0.001213  4.111809  -0.001  0.194147  0.000792  4.12675  0.0  0.102079  0.168008  -0.004008  4.101152  -0.003
C  C20  1  0.09270393  0.14943831  0.53642084  1  0.201076  0.000732  3.822226  0.0  0.809497  -0.002101  0.178907  -0.001203  4.112181  -0.001  0.194539  0.000803  4.127105  0.0  0.10237  0.168377  -0.004  4.101531  -0.003
C  C21  1  0.12976668  0.96643805  0.40827788  1  0.195232  -0.013355  3.865019  -0.015  0.834174  -0.011737  0.167378  -0.007618  4.156246  -0.009  0.176815  -0.004051  4.17219  -0.006  0.101655  0.161457  -0.01122  4.143726  -0.013
C  C22  1  0.87024791  0.03356807  0.59174623  1  0.195305  -0.013361  3.865156  -0.015  0.835054  -0.011738  0.167457  -0.00762  4.156352  -0.009  0.17689  -0.004052  4.172304  -0.006  0.101741  0.161534  -0.011223  4.143829  -0.013
N  N23  1  0.23094116  0.50167418  0.27897828  1  -0.611397  -0.076607  3.186402  -0.094  -1.171924  -0.081368  -0.590234  -0.051256  3.467271  -0.066  -0.623075  -0.041044  3.46554  -0.058  -0.657147  -0.57154  -0.054693  3.471746  -0.066
N  N24  1  0.76906578  0.49832163  0.72102760  1  -0.611534  -0.076587  3.186488  -0.094  -1.171605  -0.081352  -0.590338  -0.051246  3.467556  -0.066  -0.623166  -0.041039  3.465814  -0.058  -0.657216  -0.571677  -0.054685  3.472055  -0.066
O  O25  1  0.58622689  0.23339971  0.25079530  1  -0.577272  -0.002862  2.107389  -0.006  -1.183498  -0.004189  -0.533925  -0.002271  2.358441  -0.005  -0.554027  -0.00119  2.345683  -0.003  -0.419435  -0.519766  -0.003279  2.367436  -0.006
O  O26  1  0.41377782  0.76659610  0.74918634  1  -0.577251  -0.002862  2.107569  -0.006  -1.183761  -0.004185  -0.534021  -0.002269  2.358539  -0.005  -0.554113  -0.001188  2.345752  -0.003  -0.41947  -0.519857  -0.003277  2.367544  -0.006
O  O27  1  0.80095290  0.66784321  0.41327227  1  -0.467809  -0.066653  2.183343  -0.092  -1.183056  -0.072796  -0.433817  -0.045991  2.447624  -0.069  -0.472738  -0.032302  2.446865  -0.054  -0.291271  -0.406603  -0.055806  2.448044  -0.078
O  O28  1  0.19903971  0.33213350  0.58673766  1  -0.467704  -0.066536  2.18478  -0.091  -1.183343  -0.072704  -0.433636  -0.045937  2.449028  -0.069  -0.472529  -0.032264  2.448274  -0.054  -0.291228  -0.40645  -0.055749  2.449469  -0.078
O  O29  1  0.28179103  0.92297952  0.29665083  1  -0.481822  -0.014172  2.094585  -0.018  -1.192656  -0.007897  -0.439113  -0.004662  2.320186  -0.006  -0.46442  -0.001431  2.322434  -0.002  -0.289443  -0.419022  -0.009521  2.316636  -0.012
O  O30  1  0.71825007  0.07701903  0.70334480  1  -0.481589  -0.014166  2.09504  -0.018  -1.192666  -0.007898  -0.438872  -0.004662  2.320588  -0.006  -0.464166  -0.001432  2.322837  -0.002  -0.289291  -0.418786  -0.009521  2.317038  -0.012
