# generated using pymatgen
data_MnH16C8S2N2(ClO)2
_symmetry_space_group_name_H-M   'P 1'
_cell_length_a   6.74082114
_cell_length_b   6.76088394
_cell_length_c   8.81399667
_cell_angle_alpha   86.63746292
_cell_angle_beta   83.95593694
_cell_angle_gamma   65.40124753
_symmetry_Int_Tables_number   1
_chemical_formula_structural   MnH16C8S2N2(ClO)2
_chemical_formula_sum   'Mn1 H16 C8 S2 N2 Cl2 O2'
_cell_volume   363.15406526
_cell_formula_units_Z   1
loop_
 _symmetry_equiv_pos_site_id
 _symmetry_equiv_pos_as_xyz
  1  'x, y, z'
loop_
 _atom_site_type_symbol
 _atom_site_label
 _atom_site_symmetry_multiplicity
 _atom_site_fract_x
 _atom_site_fract_y
 _atom_site_fract_z
 _atom_site_occupancy
 _atom_site_hle17_ddec_charge
 _atom_site_hle17_ddec_spin_density
 _atom_site_hle17_ddec_sum_bond_order
 _atom_site_hle17_magmom
 _atom_site_hse06_10hf_ddec_charge
 _atom_site_hse06_10hf_ddec_spin_density
 _atom_site_hse06_10hf_ddec_sum_bond_order
 _atom_site_hse06_10hf_magmom
 _atom_site_hse06_ddec_charge
 _atom_site_hse06_ddec_spin_density
 _atom_site_hse06_ddec_sum_bond_order
 _atom_site_hse06_magmom
 _atom_site_pbe_cm5_charge
 _atom_site_pbe_ddec_charge
 _atom_site_pbe_ddec_spin_density
 _atom_site_pbe_ddec_sum_bond_order
 _atom_site_pbe_magmom
Mn  Mn0  1  0.49999306  0.00000598  0.50000436  1  0.99434  4.773431  2.007824  4.651  0.834283  4.694203  2.506838  4.506  0.892402  4.743162  2.440935  4.576  0.47838  0.789626  4.642903  2.554723  4.436
H  H1  1  0.34250827  0.50368919  0.55899341  1  0.096774  -7e-06  0.962162  0.0  0.096693  0.000411  1.037932  0.001  0.100272  0.000175  1.034799  0.001  0.115908  0.093978  0.000651  1.040539  0.001
H  H2  1  0.65748135  0.49629192  0.44100536  1  0.096793  -8e-06  0.962153  0.0  0.096694  0.000411  1.037951  0.001  0.100271  0.000174  1.034823  0.001  0.115891  0.093982  0.00065  1.040555  0.001
H  H3  1  0.99870081  0.15215336  0.44653215  1  0.099432  1.6e-05  0.958255  0.0  0.100533  0.000337  1.031976  0.001  0.104134  0.000122  1.028786  0.001  0.118707  0.097884  0.000546  1.034447  0.001
H  H4  1  0.00131903  0.84783412  0.55345946  1  0.099526  2.7e-05  0.958138  0.0  0.100592  0.000337  1.031874  0.001  0.104193  0.000122  1.028687  0.001  0.118736  0.097943  0.000547  1.034343  0.001
H  H5  1  0.03998583  0.11972514  0.16046459  1  0.148536  0.000117  0.9713  0.0  0.16434  0.000528  1.032232  0.0  0.167045  0.000323  1.031324  0.0  0.090434  0.162253  0.000743  1.033128  0.0
H  H6  1  0.96002189  0.88027706  0.83953748  1  0.148489  0.000143  0.971422  0.0  0.164297  0.000528  1.032349  0.0  0.167008  0.000323  1.03143  0.0  0.090406  0.162209  0.000743  1.033242  0.0
H  H7  1  0.21834928  0.06885479  0.98365986  1  0.139864  -9e-06  0.99292  0.0  0.152928  0.000244  1.061974  0.0  0.155292  0.000107  1.061606  0.0  0.087199  0.151079  0.000386  1.062447  0.0
H  H8  1  0.78165997  0.93114737  0.01633756  1  0.139874  -3e-06  0.992906  0.0  0.152921  0.000244  1.061956  0.0  0.155289  0.000107  1.061587  0.0  0.087212  0.151068  0.000386  1.062428  0.0
H  H9  1  0.26293173  0.20721900  0.13654663  1  0.140672  -0.000258  0.964554  0.0  0.155507  -0.000189  1.028656  0.0  0.157528  -0.000222  1.028477  0.0  0.093072  0.154244  -0.00015  1.028402  0.0
H  H10  1  0.73707552  0.79277346  0.86345820  1  0.140701  -0.000252  0.964519  0.0  0.155519  -0.000188  1.028616  0.0  0.157539  -0.000223  1.028441  0.0  0.093083  0.154255  -0.00015  1.028361  0.0
H  H11  1  0.34934989  0.50273975  0.18264575  1  0.144014  -0.000345  0.980678  0.0  0.155645  -0.00013  1.049569  0.0  0.158395  -0.000217  1.048557  0.0  0.087641  0.15366  -3.6e-05  1.050115  0.0
H  H12  1  0.65064683  0.49726737  0.81735921  1  0.144038  -0.000356  0.98057  0.0  0.15566  -0.00013  1.049488  0.0  0.158409  -0.000217  1.048476  0.0  0.087658  0.153675  -3.6e-05  1.050033  0.0
H  H13  1  0.26335525  0.66396774  0.01146062  1  0.146973  0.000818  0.950044  0.0  0.165311  0.00161  1.008365  0.001  0.167476  0.001198  1.00771  0.001  0.09639  0.163534  0.00205  1.009126  0.001
H  H14  1  0.73664013  0.33604263  0.98854316  1  0.146969  0.000811  0.949995  0.0  0.165307  0.00161  1.00835  0.001  0.167469  0.001198  1.007689  0.001  0.096383  0.163528  0.00205  1.009106  0.001
H  H15  1  0.08613306  0.73797040  0.18748677  1  0.151406  -0.000351  0.939163  0.0  0.168376  -0.000226  0.995901  0.0  0.170671  -0.000264  0.99565  0.0  0.099563  0.166721  -0.000181  0.996075  0.0
H  H16  1  0.91386844  0.26204320  0.81251753  1  0.151353  -0.000375  0.939122  0.0  0.168345  -0.000226  0.995842  0.0  0.170639  -0.000264  0.995591  0.0  0.09958  0.16669  -0.000181  0.996015  0.0
C  C17  1  0.18955271  0.50123188  0.53255425  1  0.085526  0.001411  3.654835  0.002  0.057615  0.00381  3.906794  0.003  0.060201  0.002571  3.923687  0.003  0.058338  0.05516  0.005289  3.896726  0.004
C  C18  1  0.81042594  0.49876870  0.46743538  1  0.085417  0.001388  3.654665  0.002  0.057524  0.003809  3.906629  0.003  0.060101  0.002572  3.923507  0.003  0.05838  0.055069  0.005288  3.896572  0.004
C  C19  1  0.99997428  0.30741906  0.47082339  1  0.087446  0.00131  3.654512  0.002  0.061174  0.003804  3.905028  0.003  0.063882  0.00257  3.922105  0.002  0.058927  0.05864  0.005246  3.894782  0.004
C  C20  1  0.00001053  0.69257015  0.52916969  1  0.087165  0.001244  3.654699  0.002  0.060976  0.003803  3.905092  0.003  0.063669  0.002569  3.922167  0.002  0.058879  0.05845  0.005244  3.894841  0.004
C  C21  1  0.20611455  0.08509274  0.10806979  1  -0.445358  0.000727  3.577316  0.001  -0.511334  0.001716  3.816458  0.002  -0.51604  0.001137  3.821292  0.001  -0.245399  -0.507873  0.002328  3.813215  0.002
C  C22  1  0.79389251  0.91491107  0.89193113  1  -0.445389  0.000678  3.577551  0.001  -0.511284  0.001716  3.816563  0.002  -0.515998  0.001138  3.821396  0.001  -0.245374  -0.507839  0.002328  3.813377  0.002
C  C23  1  0.25621040  0.66652567  0.13651417  1  -0.433152  0.002568  3.552844  0.002  -0.497313  0.003834  3.791567  0.003  -0.50161  0.002858  3.795615  0.002  -0.239577  -0.494055  0.004865  3.788869  0.004
C  C24  1  0.74378981  0.33347657  0.86349188  1  -0.433128  0.002622  3.552713  0.002  -0.497307  0.003834  3.791445  0.003  -0.501595  0.002862  3.795484  0.002  -0.239626  -0.494041  0.004865  3.78874  0.004
S  S25  1  0.39335421  0.83041687  0.18216154  1  0.704272  0.003972  3.553777  0.003  0.679001  0.007531  3.986723  0.005  0.695672  0.005203  3.985677  0.004  0.289185  0.666734  0.01003  3.987051  0.007
S  S26  1  0.60665402  0.16958046  0.81784186  1  0.704295  0.003968  3.553894  0.003  0.679026  0.007533  3.98683  0.005  0.695698  0.005202  3.985785  0.004  0.289178  0.666758  0.010031  3.987155  0.007
N  N27  1  0.18993726  0.30833526  0.50318765  1  -0.275044  0.02685  3.253885  0.015  -0.208179  0.031788  3.517164  0.017  -0.223259  0.028256  3.533907  0.014  -0.30101  -0.197648  0.03597  3.506608  0.02
N  N28  1  0.81004741  0.69166528  0.49679698  1  -0.274959  0.026873  3.253968  0.015  -0.208075  0.031789  3.51718  0.017  -0.223119  0.028251  3.533891  0.014  -0.30101  -0.197557  0.035971  3.506637  0.02
Cl  Cl29  1  0.34392597  0.85960539  0.72882755  1  -0.633418  0.045598  0.860576  0.029  -0.575745  0.059035  1.124246  0.033  -0.596656  0.050173  1.103016  0.027  -0.305441  -0.55833  0.067795  1.13868  0.04
Cl  Cl30  1  0.65608295  0.14039030  0.27117360  1  -0.633433  0.045594  0.860508  0.029  -0.575747  0.059032  1.124143  0.033  -0.596654  0.05017  1.102913  0.027  -0.305454  -0.558336  0.067792  1.138576  0.04
O  O31  1  0.35611808  0.84773898  0.35672513  1  -0.655011  0.030899  2.00595  0.02  -0.58163  0.038793  2.291761  0.025  -0.609149  0.034431  2.283031  0.021  -0.343127  -0.560719  0.043016  2.29687  0.028
O  O32  1  0.64389270  0.15224858  0.64327739  1  -0.654983  0.030898  2.005864  0.02  -0.581652  0.038795  2.29174  0.025  -0.609174  0.034432  2.283015  0.021  -0.343111  -0.560741  0.043018  2.29685  0.028
