# generated using pymatgen
data_PrH4C3O8
_symmetry_space_group_name_H-M   'P 1'
_cell_length_a   6.10746759
_cell_length_b   7.83922466
_cell_length_c   8.30914529
_cell_angle_alpha   96.24286210
_cell_angle_beta   93.47578060
_cell_angle_gamma   109.45955928
_symmetry_Int_Tables_number   1
_chemical_formula_structural   PrH4C3O8
_chemical_formula_sum   'Pr2 H8 C6 O16'
_cell_volume   370.87826997
_cell_formula_units_Z   2
loop_
 _symmetry_equiv_pos_site_id
 _symmetry_equiv_pos_as_xyz
  1  'x, y, z'
loop_
 _atom_site_type_symbol
 _atom_site_label
 _atom_site_symmetry_multiplicity
 _atom_site_fract_x
 _atom_site_fract_y
 _atom_site_fract_z
 _atom_site_occupancy
 _atom_site_hle17_bader_spin_density
 _atom_site_hle17_ddec_charge
 _atom_site_hle17_ddec_spin_density
 _atom_site_hle17_ddec_sum_bond_order
 _atom_site_hle17_magmom
 _atom_site_hse06_10hf_bader_spin_density
 _atom_site_hse06_10hf_ddec_charge
 _atom_site_hse06_10hf_ddec_spin_density
 _atom_site_hse06_10hf_ddec_sum_bond_order
 _atom_site_hse06_10hf_magmom
 _atom_site_hse06_bader_spin_density
 _atom_site_hse06_ddec_charge
 _atom_site_hse06_ddec_spin_density
 _atom_site_hse06_ddec_sum_bond_order
 _atom_site_hse06_magmom
 _atom_site_pbe_bader_spin_density
 _atom_site_pbe_cm5_charge
 _atom_site_pbe_ddec_charge
 _atom_site_pbe_ddec_spin_density
 _atom_site_pbe_ddec_sum_bond_order
 _atom_site_pbe_magmom
Pr  Pr0  1  0.00123395  0.81478071  0.28273391  1  0  2.275653  0  1.587942  0  0  2.100153  0  2.055128  0  0  2.196986  0  1.904715  0  0  1.481255  2.071564  0  2.085452  0
Pr  Pr1  1  0.99876410  0.18520378  0.71726135  1  0  2.27569  0  1.587933  0  0  2.100258  0  2.054987  0  0  2.197017  0  1.904687  0  0  1.481327  2.071673  0  2.085314  0
H  H2  1  0.57112348  0.87300717  0.12397878  1  0  0.451702  0  0.836551  0  0  0.420369  0  0.899405  0  0  0.431986  0  0.882328  0  0  0.311159  0.412203  0  0.911531  0
H  H3  1  0.42886056  0.12697364  0.87601014  1  0  0.451754  0  0.836485  0  0  0.420382  0  0.899399  0  0  0.432003  0  0.882321  0  0  0.311201  0.412209  0  0.911532  0
H  H4  1  0.69588043  0.82502263  0.96608641  1  0  0.460375  0  0.818713  0  0  0.43454  0  0.871252  0  0  0.445421  0  0.85535  0  0  0.315578  0.427006  0  0.882352  0
H  H5  1  0.30412188  0.17496368  0.03390335  1  0  0.460403  0  0.818676  0  0  0.43458  0  0.871196  0  0  0.445461  0  0.855294  0  0  0.315652  0.427046  0  0.882296  0
H  H6  1  0.18301098  0.23287244  0.31015978  1  0  0.450013  0  0.837726  0  0  0.42041  0  0.897284  0  0  0.431208  0  0.88172  0  0  0.313276  0.41277  0  0.908416  0
H  H7  1  0.81695721  0.76711216  0.68983676  1  0  0.44994  0  0.837818  0  0  0.420329  0  0.897379  0  0  0.431131  0  0.881812  0  0  0.31322  0.412688  0  0.908513  0
H  H8  1  0.00567115  0.17119076  0.14955302  1  0  0.435032  0  0.856984  0  0  0.406331  0  0.918327  0  0  0.416227  0  0.904037  0  0  0.313358  0.399303  0  0.928653  0
H  H9  1  0.99434171  0.82880421  0.85044456  1  0  0.435138  0  0.856634  0  0  0.40635  0  0.918298  0  0  0.416263  0  0.903985  0  0  0.313298  0.399295  0  0.928652  0
C  C10  1  0.44076220  0.01709024  0.57717683  1  0  0.60194  0  3.864224  0  0  0.555368  0  4.156849  0  0  0.585748  0  4.153531  0  0  0.244737  0.534435  0  4.163506  0
C  C11  1  0.55922632  0.98289194  0.42282586  1  0  0.6023  0  3.864846  0  0  0.555526  0  4.157707  0  0  0.585911  0  4.154391  0  0  0.244799  0.534567  0  4.164391  0
C  C12  1  0.08860495  0.57215618  0.95650316  1  0  0.568157  0  3.90666  0  0  0.524378  0  4.20297  0  0  0.554051  0  4.199108  0  0  0.223861  0.503977  0  4.208784  0
C  C13  1  0.91145574  0.42786987  0.04347393  1  0  0.568424  0  3.907079  0  0  0.524476  0  4.203622  0  0  0.554142  0  4.199758  0  0  0.223715  0.504081  0  4.209431  0
C  C14  1  0.88699167  0.50595028  0.53511015  1  0  0.579384  0  3.898991  0  0  0.533962  0  4.198411  0  0  0.564239  0  4.192918  0  0  0.224084  0.513162  0  4.205096  0
C  C15  1  0.11297846  0.49405344  0.46492483  1  0  0.57904  0  3.899178  0  0  0.533774  0  4.198419  0  0  0.564052  0  4.19293  0  0  0.223986  0.512972  0  4.205102  0
O  O16  1  0.22965692  0.01058666  0.55401491  1  0  -0.745751  0  2.1161  0  0  -0.689951  0  2.374708  0  0  -0.725795  0  2.363139  0  0  -0.387733  -0.673827  0  2.381247  0
O  O17  1  0.77029846  0.98939538  0.44598757  1  0  -0.745767  0  2.116301  0  0  -0.689956  0  2.375081  0  0  -0.72579  0  2.363506  0  0  -0.387757  -0.67383  0  2.381627  0
O  O18  1  0.56078071  0.04766368  0.71247909  1  0  -0.619883  0  2.081367  0  0  -0.562181  0  2.311467  0  0  -0.590889  0  2.300548  0  0  -0.3316  -0.546219  0  2.317874  0
O  O19  1  0.43920204  0.95233367  0.28753447  1  0  -0.61997  0  2.08169  0  0  -0.562251  0  2.311904  0  0  -0.590978  0  2.300991  0  0  -0.331619  -0.546279  0  2.318318  0
O  O20  1  0.12441519  0.73980791  0.00946508  1  0  -0.685455  0  2.035799  0  0  -0.626798  0  2.272409  0  0  -0.655984  0  2.258941  0  0  -0.374098  -0.610652  0  2.279689  0
O  O21  1  0.87568641  0.26026155  0.99050560  1  0  -0.685656  0  2.036158  0  0  -0.626993  0  2.272772  0  0  -0.656154  0  2.259299  0  0  -0.374227  -0.610871  0  2.280084  0
O  O22  1  0.17979462  0.51518976  0.84064946  1  0  -0.629149  0  2.021192  0  0  -0.582429  0  2.25219  0  0  -0.610533  0  2.240732  0  0  -0.35441  -0.567273  0  2.258227  0
O  O23  1  0.82027026  0.48483160  0.15931658  1  0  -0.629282  0  2.021551  0  0  -0.582512  0  2.252641  0  0  -0.610625  0  2.241184  0  0  -0.354469  -0.567352  0  2.258662  0
O  O24  1  0.82899018  0.64281218  0.50645810  1  0  -0.679052  0  2.055453  0  0  -0.62294  0  2.291541  0  0  -0.652034  0  2.277647  0  0  -0.367253  -0.60716  0  2.299505  0
O  O25  1  0.17097621  0.35717051  0.49355616  1  0  -0.679007  0  2.055444  0  0  -0.622921  0  2.291425  0  0  -0.652009  0  2.27754  0  0  -0.367229  -0.607137  0  2.299382  0
O  O26  1  0.78124026  0.38377931  0.61689163  1  0  -0.640486  0  2.027759  0  0  -0.595538  0  2.264591  0  0  -0.624076  0  2.254283  0  0  -0.354215  -0.579641  0  2.269758  0
O  O27  1  0.21873776  0.61623665  0.38315860  1  0  -0.640366  0  2.027861  0  0  -0.595444  0  2.264643  0  0  -0.623988  0  2.254332  0  0  -0.354216  -0.579546  0  2.269808  0
O  O28  1  0.68883239  0.82211002  0.08409992  1  0  -0.927291  0  1.821006  0  0  -0.875374  0  2.007643  0  0  -0.900442  0  1.967638  0  0  -0.652014  -0.862989  0  2.031637  0
O  O29  1  0.31115914  0.17787520  0.91589731  1  0  -0.927348  0  1.820924  0  0  -0.875444  0  2.007589  0  0  -0.900499  0  1.967556  0  0  -0.65213  -0.863049  0  2.0316  0
O  O30  1  0.13130943  0.14206422  0.20935384  1  0  -0.895187  0  1.876927  0  0  -0.840185  0  2.057384  0  0  -0.865981  0  2.021856  0  0  -0.60578  -0.826539  0  2.079542  0
O  O31  1  0.86866016  0.85794857  0.79063390  1  0  -0.895296  0  1.876621  0  0  -0.840271  0  2.057324  0  0  -0.866068  0  2.021757  0  0  -0.605757  -0.826588  0  2.079546  0
