# generated using pymatgen
data_CuH5C5IN2
_symmetry_space_group_name_H-M   'P 1'
_cell_length_a   4.12396685
_cell_length_b   7.66395986
_cell_length_c   10.64945312
_cell_angle_alpha   88.02176854
_cell_angle_beta   87.83720134
_cell_angle_gamma   79.26024174
_symmetry_Int_Tables_number   1
_chemical_formula_structural   CuH5C5IN2
_chemical_formula_sum   'Cu2 H10 C10 I2 N4'
_cell_volume   330.32488554
_cell_formula_units_Z   2
loop_
 _symmetry_equiv_pos_site_id
 _symmetry_equiv_pos_as_xyz
  1  'x, y, z'
loop_
 _atom_site_type_symbol
 _atom_site_label
 _atom_site_symmetry_multiplicity
 _atom_site_fract_x
 _atom_site_fract_y
 _atom_site_fract_z
 _atom_site_occupancy
 _atom_site_hle17_bader_spin_density
 _atom_site_hle17_ddec_charge
 _atom_site_hle17_ddec_spin_density
 _atom_site_hle17_ddec_sum_bond_order
 _atom_site_hle17_magmom
 _atom_site_hse06_10hf_bader_spin_density
 _atom_site_hse06_10hf_ddec_charge
 _atom_site_hse06_10hf_ddec_spin_density
 _atom_site_hse06_10hf_ddec_sum_bond_order
 _atom_site_hse06_10hf_magmom
 _atom_site_hse06_bader_spin_density
 _atom_site_hse06_ddec_charge
 _atom_site_hse06_ddec_spin_density
 _atom_site_hse06_ddec_sum_bond_order
 _atom_site_hse06_magmom
 _atom_site_pbe_bader_spin_density
 _atom_site_pbe_cm5_charge
 _atom_site_pbe_ddec_charge
 _atom_site_pbe_ddec_spin_density
 _atom_site_pbe_ddec_sum_bond_order
 _atom_site_pbe_magmom
Cu  Cu0  1  0.30590389  0.12359355  0.93931852  1  0  0.273017  0  2.132425  0  0  0.195679  0  2.595245  0  0  0.205817  0  2.544561  0  0  0.26297  0.191438  0  2.628333  0
Cu  Cu1  1  0.69408062  0.87640185  0.06067849  1  0  0.273003  0  2.132415  0  0  0.19566  0  2.595242  0  0  0.205747  0  2.544558  0  0  0.262968  0.191418  0  2.628354  0
H  H2  1  0.49759431  0.06305814  0.34820354  1  0  0.131085  0  0.948661  0  0  0.152107  0  1.011545  0  0  0.154223  0  1.010311  0  0  0.094283  0.150144  0  1.013124  0
H  H3  1  0.50238967  0.93693841  0.65180473  1  0  0.131015  0  0.948569  0  0  0.151994  0  1.011541  0  0  0.154108  0  1.010309  0  0  0.094244  0.15003  0  1.013119  0
H  H4  1  0.23655048  0.96748583  0.25424968  1  0  0.122415  0  0.982906  0  0  0.134356  0  1.061476  0  0  0.138251  0  1.057877  0  0  0.080139  0.130979  0  1.064421  0
H  H5  1  0.76344502  0.03251212  0.74576591  1  0  0.122212  0  0.982691  0  0  0.134172  0  1.061328  0  0  0.138066  0  1.05773  0  0  0.080041  0.130792  0  1.064279  0
H  H6  1  0.21737891  0.94047139  0.42323759  1  0  0.132903  0  0.937057  0  0  0.154535  0  0.992944  0  0  0.156044  0  0.992825  0  0  0.097895  0.153619  0  0.992969  0
H  H7  1  0.78262726  0.05951206  0.57677716  1  0  0.132988  0  0.937297  0  0  0.154606  0  0.993166  0  0  0.15611  0  0.993057  0  0  0.097938  0.153687  0  0.993194  0
H  H8  1  0.71165639  0.63834875  0.67779545  1  0  0.122639  0  0.970877  0  0  0.127181  0  1.040832  0  0  0.131672  0  1.038848  0  0  0.103007  0.12355  0  1.042913  0
H  H9  1  0.28837823  0.36164888  0.32219802  1  0  0.122572  0  0.970871  0  0  0.127086  0  1.040861  0  0  0.131576  0  1.038894  0  0  0.102976  0.123464  0  1.042919  0
H  H10  1  0.87549278  0.45543425  0.87339788  1  0  0.074329  0  0.97097  0  0  0.079078  0  1.04557  0  0  0.082595  0  1.041351  0  0  0.093599  0.075833  0  1.049428  0
H  H11  1  0.12447296  0.54455935  0.12660881  1  0  0.074426  0  0.971474  0  0  0.079195  0  1.045978  0  0  0.082707  0  1.041748  0  0  0.093685  0.075959  0  1.049827  0
C  C12  1  0.63780372  0.78220904  0.33460383  1  0  0.465347  0  3.686325  0  0  0.458257  0  3.939332  0  0  0.473451  0  3.953966  0  0  0.24512  0.448212  0  3.929538  0
C  C13  1  0.36219289  0.21779857  0.66539469  1  0  0.465389  0  3.686479  0  0  0.458292  0  3.939491  0  0  0.473476  0  3.95412  0  0  0.24522  0.448243  0  3.929696  0
C  C14  1  0.37970183  0.94655719  0.34005506  1  0  -0.40372  0  3.674901  0  0  -0.488968  0  3.911359  0  0  -0.493161  0  3.916078  0  0  -0.246304  -0.485613  0  3.908346  0
C  C15  1  0.62030361  0.05344675  0.65993119  1  0  -0.403539  0  3.674711  0  0  -0.48874  0  3.911144  0  0  -0.492933  0  3.915873  0  0  -0.246258  -0.48538  0  3.90813  0
C  C16  1  0.95408682  0.54599516  0.43949019  1  0  0.225242  0  3.746568  0  0  0.220316  0  3.995267  0  0  0.232489  0  4.007142  0  0  0.132314  0.21191  0  3.987911  0
C  C17  1  0.04594620  0.45400625  0.56051545  1  0  0.225605  0  3.746653  0  0  0.220851  0  3.995131  0  0  0.233026  0  4.007001  0  0  0.132463  0.212447  0  3.987773  0
C  C18  1  0.89660315  0.51733459  0.67411660  1  0  -0.181947  0  3.67972  0  0  -0.204199  0  3.930914  0  0  -0.214381  0  3.948163  0  0  -0.085363  -0.197842  0  3.920256  0
C  C19  1  0.10339615  0.48267842  0.32588085  1  0  -0.181682  0  3.679471  0  0  -0.203857  0  3.930697  0  0  -0.214046  0  3.947946  0  0  -0.085195  -0.197494  0  3.920047  0
C  C20  1  0.98945936  0.41729855  0.78189688  1  0  0.180994  0  3.674013  0  0  0.146448  0  3.927952  0  0  0.159279  0  3.939539  0  0  0.044265  0.137111  0  3.92152  0
C  C21  1  0.01055969  0.58268965  0.21808475  1  0  0.180727  0  3.674031  0  0  0.1462  0  3.927965  0  0  0.159056  0  3.939549  0  0  0.044044  0.136855  0  3.921549  0
I  I22  1  0.73560812  0.21663170  0.08284792  1  0  -0.369657  0  1.781774  0  0  -0.31052  0  2.243578  0  0  -0.330064  0  2.202634  0  0  -0.154661  -0.293911  0  2.270684  0
I  I23  1  0.26435579  0.78337279  0.91714453  1  0  -0.369722  0  1.781885  0  0  -0.310536  0  2.243587  0  0  -0.330066  0  2.202629  0  0  -0.154682  -0.293922  0  2.270694  0
N  N24  1  0.78140296  0.73373962  0.22036172  1  0  -0.35592  0  3.254627  0  0  -0.281635  0  3.533883  0  0  -0.297617  0  3.539639  0  0  -0.358753  -0.272605  0  3.530733  0
N  N25  1  0.21858612  0.26626251  0.77963699  1  0  -0.356009  0  3.254941  0  0  -0.28169  0  3.534162  0  0  -0.297639  0  3.539901  0  0  -0.358814  -0.272653  0  3.530986  0
N  N26  1  0.71954213  0.69437325  0.44264296  1  0  -0.416836  0  2.984655  0  0  -0.382886  0  3.240375  0  0  -0.398845  0  3.253187  0  0  -0.308539  -0.373086  0  3.232841  0
N  N27  1  0.28048823  0.30563490  0.55735697  1  0  -0.416876  0  2.984961  0  0  -0.382981  0  3.240616  0  0  -0.39894  0  3.25343  0  0  -0.308603  -0.373187  0  3.233088  0
