# generated using pymatgen
data_MgH5C5O6
_symmetry_space_group_name_H-M   'P 1'
_cell_length_a   7.07075676
_cell_length_b   7.29991006
_cell_length_c   8.32036092
_cell_angle_alpha   90.46415305
_cell_angle_beta   109.88823341
_cell_angle_gamma   95.20701720
_symmetry_Int_Tables_number   1
_chemical_formula_structural   MgH5C5O6
_chemical_formula_sum   'Mg2 H10 C10 O12'
_cell_volume   401.83378289
_cell_formula_units_Z   2
loop_
 _symmetry_equiv_pos_site_id
 _symmetry_equiv_pos_as_xyz
  1  'x, y, z'
loop_
 _atom_site_type_symbol
 _atom_site_label
 _atom_site_symmetry_multiplicity
 _atom_site_fract_x
 _atom_site_fract_y
 _atom_site_fract_z
 _atom_site_occupancy
 _atom_site_hle17_bader_spin_density
 _atom_site_hle17_ddec_charge
 _atom_site_hle17_ddec_spin_density
 _atom_site_hle17_ddec_sum_bond_order
 _atom_site_hle17_magmom
 _atom_site_hse06_10hf_bader_spin_density
 _atom_site_hse06_10hf_ddec_charge
 _atom_site_hse06_10hf_ddec_spin_density
 _atom_site_hse06_10hf_ddec_sum_bond_order
 _atom_site_hse06_10hf_magmom
 _atom_site_hse06_bader_spin_density
 _atom_site_hse06_ddec_charge
 _atom_site_hse06_ddec_spin_density
 _atom_site_hse06_ddec_sum_bond_order
 _atom_site_hse06_magmom
 _atom_site_pbe_bader_spin_density
 _atom_site_pbe_cm5_charge
 _atom_site_pbe_ddec_charge
 _atom_site_pbe_ddec_spin_density
 _atom_site_pbe_ddec_sum_bond_order
 _atom_site_pbe_magmom
Mg  Mg0  1  0.50000005  0.49999960  0.00000011  1  0  1.486847  0  1.125957  0  0  1.378893  0  1.379713  0  0  1.402942  0  1.343001  0  0  0.798218  1.36192  0  1.405266  0
Mg  Mg1  1  0.00000169  0.00000141  0.00000408  1  0  1.52356  0  1.115811  0  0  1.412319  0  1.377008  0  0  1.435422  0  1.341191  0  0  0.815108  1.396092  0  1.401782  0
H  H2  1  0.42057231  0.31293056  0.55749913  1  0  0.122831  0  0.927685  0  0  0.131571  0  0.987132  0  0  0.135719  0  0.98452  0  0  0.115217  0.128627  0  0.989032  0
H  H3  1  0.57942942  0.68707011  0.44250378  1  0  0.122848  0  0.927692  0  0  0.131583  0  0.987145  0  0  0.135733  0  0.984532  0  0  0.115227  0.128639  0  0.989046  0
H  H4  1  0.14393008  0.42369988  0.98280726  1  0  0.41677  0  0.887562  0  0  0.38231  0  0.959867  0  0  0.393942  0  0.942511  0  0  0.298391  0.374053  0  0.97218  0
H  H5  1  0.85607014  0.57630078  0.01719523  1  0  0.416815  0  0.887549  0  0  0.382338  0  0.959826  0  0  0.393973  0  0.942472  0  0  0.298405  0.374079  0  0.972141  0
H  H6  1  0.15575226  0.63243159  0.92219924  1  0  0.441819  0  0.843316  0  0  0.411326  0  0.906229  0  0  0.421811  0  0.890654  0  0  0.309001  0.403859  0  0.917342  0
H  H7  1  0.84424963  0.36757047  0.07780612  1  0  0.441821  0  0.843384  0  0  0.411312  0  0.906277  0  0  0.421798  0  0.890703  0  0  0.308999  0.403844  0  0.917391  0
H  H8  1  0.81115711  0.84613268  0.20744258  1  0  0.443853  0  0.8481  0  0  0.410863  0  0.913565  0  0  0.421343  0  0.898288  0  0  0.303689  0.403479  0  0.924323  0
H  H9  1  0.18884311  0.15386797  0.79255991  1  0  0.443868  0  0.84807  0  0  0.410872  0  0.91354  0  0  0.42136  0  0.898256  0  0  0.303707  0.40349  0  0.924294  0
H  H10  1  0.04175181  0.82774762  0.30456013  1  0  0.43584  0  0.810716  0  0  0.420258  0  0.861247  0  0  0.427064  0  0.85368  0  0  0.331091  0.415463  0  0.866601  0
H  H11  1  0.95824741  0.17225716  0.69544931  1  0  0.435861  0  0.810825  0  0  0.420273  0  0.861356  0  0  0.42708  0  0.853688  0  0  0.331102  0.415477  0  0.866712  0
C  C12  1  0.57606937  0.14695906  0.84372890  1  0  0.717584  0  3.843015  0  0  0.657418  0  4.149197  0  0  0.691722  0  4.138155  0  0  0.240602  0.634179  0  4.156109  0
C  C13  1  0.42390641  0.85305360  0.15626925  1  0  0.717543  0  3.842868  0  0  0.657369  0  4.149144  0  0  0.691674  0  4.138095  0  0  0.240543  0.634129  0  4.15606  0
C  C14  1  0.53300316  0.06229932  0.66840010  1  0  -0.080857  0  3.725124  0  0  -0.070837  0  3.970926  0  0  -0.074715  0  3.989194  0  0  -0.008198  -0.068418  0  3.95881  0
C  C15  1  0.46699187  0.93769302  0.33160571  1  0  -0.080725  0  3.725012  0  0  -0.070785  0  3.970946  0  0  -0.074663  0  3.989217  0  0  -0.008134  -0.068356  0  3.958835  0
C  C16  1  0.45391118  0.17507246  0.53082342  1  0  -0.082666  0  3.687681  0  0  -0.115014  0  3.93792  0  0  -0.115051  0  3.954722  0  0  -0.07534  -0.114976  0  3.926811  0
C  C17  1  0.54608429  0.82492537  0.46917893  1  0  -0.082702  0  3.687971  0  0  -0.115029  0  3.938256  0  0  -0.115068  0  3.955059  0  0  -0.075344  -0.114998  0  3.927136  0
C  C18  1  0.57904999  0.88470432  0.63713246  1  0  -0.046137  0  3.705156  0  0  -0.035033  0  3.94806  0  0  -0.037509  0  3.965635  0  0  -0.00059  -0.033708  0  3.936601  0
C  C19  1  0.42095178  0.11529772  0.36286565  1  0  -0.046141  0  3.704937  0  0  -0.034992  0  3.947871  0  0  -0.037471  0  3.965448  0  0  -0.000599  -0.033693  0  3.93645  0
C  C20  1  0.64695320  0.74819361  0.77511456  1  0  0.7168  0  3.858656  0  0  0.659896  0  4.162561  0  0  0.694044  0  4.151588  0  0  0.238398  0.636731  0  4.169388  0
C  C21  1  0.35303933  0.25178904  0.22488329  1  0  0.716697  0  3.858667  0  0  0.659756  0  4.162657  0  0  0.6939  0  4.151686  0  0  0.238307  0.636595  0  4.169487  0
O  O22  1  0.44426180  0.24186212  0.86678335  1  0  -0.701319  0  2.036795  0  0  -0.634817  0  2.268451  0  0  -0.659518  0  2.256717  0  0  -0.327388  -0.617693  0  2.275996  0
O  O23  1  0.55573957  0.75813443  0.13322063  1  0  -0.701473  0  2.036161  0  0  -0.634923  0  2.267775  0  0  -0.659626  0  2.256031  0  0  -0.327427  -0.617794  0  2.275323  0
O  O24  1  0.51526727  0.62175317  0.77938394  1  0  -0.674885  0  1.965098  0  0  -0.625067  0  2.196178  0  0  -0.648718  0  2.184408  0  0  -0.338237  -0.608504  0  2.203706  0
O  O25  1  0.48475383  0.37824641  0.22061954  1  0  -0.674982  0  1.964528  0  0  -0.625142  0  2.195624  0  0  -0.648799  0  2.183859  0  0  -0.33821  -0.608571  0  2.203145  0
O  O26  1  0.83076419  0.76420369  0.87636422  1  0  -0.739714  0  2.052379  0  0  -0.672372  0  2.282963  0  0  -0.697759  0  2.269502  0  0  -0.347575  -0.654635  0  2.291756  0
O  O27  1  0.16924218  0.23579843  0.12363999  1  0  -0.739487  0  2.052706  0  0  -0.67217  0  2.28336  0  0  -0.697533  0  2.269882  0  0  -0.347467  -0.654441  0  2.292158  0
O  O28  1  0.74699209  0.13250727  0.95778418  1  0  -0.716606  0  2.029676  0  0  -0.653274  0  2.267129  0  0  -0.677107  0  2.25425  0  0  -0.341097  -0.636721  0  2.27554  0
O  O29  1  0.25301440  0.86749487  0.04222727  1  0  -0.716407  0  2.030123  0  0  -0.653122  0  2.267653  0  0  -0.676952  0  2.254769  0  0  -0.341034  -0.636578  0  2.276078  0
O  O30  1  0.18633390  0.50656682  0.90432744  1  0  -0.88103  0  1.844104  0  0  -0.829419  0  2.017221  0  0  -0.84534  0  1.982128  0  0  -0.61127  -0.818273  0  2.041861  0
O  O31  1  0.81366805  0.49343660  0.09567433  1  0  -0.881077  0  1.844147  0  0  -0.82944  0  2.017258  0  0  -0.84537  0  1.982144  0  0  -0.611314  -0.818296  0  2.041902  0
O  O32  1  0.95030304  0.90473631  0.22619831  1  0  -0.877562  0  1.82522  0  0  -0.833456  0  2.000288  0  0  -0.849155  0  1.97408  0  0  -0.593386  -0.822497  0  2.018448  0
O  O33  1  0.04968732  0.09527107  0.77380508  1  0  -0.877588  0  1.825276  0  0  -0.833465  0  2.000371  0  0  -0.849175  0  1.974041  0  0  -0.593393  -0.822504  0  2.018529  0
