# generated using pymatgen
data_SnH4(C2O)4
_symmetry_space_group_name_H-M   'P 1'
_cell_length_a   4.82280574
_cell_length_b   7.52800922
_cell_length_c   11.60205593
_cell_angle_alpha   81.16120088
_cell_angle_beta   78.02184552
_cell_angle_gamma   71.45302348
_symmetry_Int_Tables_number   1
_chemical_formula_structural   SnH4(C2O)4
_chemical_formula_sum   'Sn2 H8 C16 O8'
_cell_volume   388.90528142
_cell_formula_units_Z   2
loop_
 _symmetry_equiv_pos_site_id
 _symmetry_equiv_pos_as_xyz
  1  'x, y, z'
loop_
 _atom_site_type_symbol
 _atom_site_label
 _atom_site_symmetry_multiplicity
 _atom_site_fract_x
 _atom_site_fract_y
 _atom_site_fract_z
 _atom_site_occupancy
 _atom_site_pbe_bader_spin_density
 _atom_site_pbe_cm5_charge
 _atom_site_pbe_ddec_charge
 _atom_site_pbe_ddec_spin_density
 _atom_site_pbe_ddec_sum_bond_order
 _atom_site_pbe_magmom
Sn  Sn0  1  0.60997700  0.22877078  0.04305278  1  0  0.538875  0.873306  0  2.347155  0
Sn  Sn1  1  0.88345327  0.77178826  0.95723463  1  0  0.540669  0.875377  0  2.337189  0
H  H2  1  0.88170902  0.11756440  0.29545080  1  0  0.109813  0.120189  0  1.011022  0
H  H3  1  0.30071579  0.88355591  0.70303770  1  0  0.109858  0.119555  0  1.009339  0
H  H4  1  0.46207357  0.04948467  0.44169567  1  0  0.100963  0.099716  0  1.022656  0
H  H5  1  0.95995426  0.95012561  0.55661739  1  0  0.101071  0.099624  0  1.022173  0
H  H6  1  0.41583333  0.72359021  0.47481989  1  0  0.106838  0.105875  0  0.993176  0
H  H7  1  0.61729510  0.27412418  0.52500206  1  0  0.106956  0.106154  0  0.993313  0
H  H8  1  0.78025950  0.47253132  0.35906302  1  0  0.105332  0.109646  0  1.016182  0
H  H9  1  0.60910376  0.52509993  0.64246955  1  0  0.105617  0.110655  0  1.01574  0
C  C10  1  0.30750567  0.88599176  0.15598376  1  0  0.228674  0.554752  0  4.217382  0
C  C11  1  0.35071372  0.11592892  0.84369181  1  0  0.229484  0.554649  0  4.216906  0
C  C12  1  0.06326275  0.83625810  0.24411183  1  0  -0.019191  -0.101933  0  4.015971  0
C  C13  1  0.14513349  0.16425374  0.75568809  1  0  -0.018397  -0.100526  0  4.014551  0
C  C14  1  0.85667384  0.97687653  0.31041070  1  0  -0.080684  -0.092543  0  3.974  0
C  C15  1  0.14822912  0.02350183  0.68866387  1  0  -0.080135  -0.090459  0  3.9743  0
C  C16  1  0.62432394  0.93767615  0.39282724  1  0  -0.087664  -0.074886  0  3.982163  0
C  C17  1  0.95970713  0.06178506  0.60620985  1  0  -0.088093  -0.076007  0  3.984327  0
C  C18  1  0.59865987  0.75548084  0.41125911  1  0  -0.079856  -0.061015  0  3.974846  0
C  C19  1  0.76795284  0.24311743  0.58863483  1  0  -0.07936  -0.060025  0  3.972088  0
C  C20  1  0.80439778  0.61347253  0.34704868  1  0  -0.082417  -0.096142  0  3.948623  0
C  C21  1  0.76428667  0.38512611  0.65382529  1  0  -0.082615  -0.09715  0  3.951165  0
C  C22  1  0.03575012  0.65259795  0.26283856  1  0  -0.002097  -0.029671  0  3.932996  0
C  C23  1  0.95065987  0.34704257  0.73784877  1  0  -0.001454  -0.029763  0  3.933503  0
C  C24  1  0.24587407  0.49269494  0.19675144  1  0  0.229427  0.589832  0  4.133989  0
C  C25  1  0.93465425  0.50686512  0.80428220  1  0  0.229294  0.591122  0  4.131899  0
O  O26  1  0.20871056  0.47803486  0.09071076  1  0  -0.258798  -0.482421  0  2.252284  0
O  O27  1  0.77451072  0.52250447  0.90982134  1  0  -0.259193  -0.483719  0  2.249114  0
O  O28  1  0.44001639  0.37002543  0.24636381  1  0  -0.275485  -0.495435  0  2.155365  0
O  O29  1  0.05875650  0.62874604  0.75519269  1  0  -0.275549  -0.496043  0  2.154004  0
O  O30  1  0.51138618  0.75006649  0.10786886  1  0  -0.262275  -0.491255  0  2.373767  0
O  O31  1  0.36592724  0.25258332  0.89274145  1  0  -0.262107  -0.489089  0  2.374958  0
O  O32  1  0.29083372  0.06002539  0.13477219  1  0  -0.273025  -0.530564  0  2.400403  0
O  O33  1  0.49099762  0.94270078  0.86401048  1  0  -0.274473  -0.531805  0  2.396626  0
