# generated using pymatgen
data_ZnTeH4CN
_symmetry_space_group_name_H-M   'P 1'
_cell_length_a   4.33945869
_cell_length_b   5.67803850
_cell_length_c   16.70666803
_cell_angle_alpha   89.99728351
_cell_angle_beta   90.00010339
_cell_angle_gamma   89.99922705
_symmetry_Int_Tables_number   1
_chemical_formula_structural   ZnTeH4CN
_chemical_formula_sum   'Zn4 Te4 H16 C4 N4'
_cell_volume   411.64584244
_cell_formula_units_Z   4
loop_
 _symmetry_equiv_pos_site_id
 _symmetry_equiv_pos_as_xyz
  1  'x, y, z'
loop_
 _atom_site_type_symbol
 _atom_site_label
 _atom_site_symmetry_multiplicity
 _atom_site_fract_x
 _atom_site_fract_y
 _atom_site_fract_z
 _atom_site_occupancy
 _atom_site_hle17_bader_spin_density
 _atom_site_hle17_ddec_charge
 _atom_site_hle17_ddec_spin_density
 _atom_site_hle17_ddec_sum_bond_order
 _atom_site_hle17_magmom
 _atom_site_hse06_10hf_bader_spin_density
 _atom_site_hse06_10hf_ddec_charge
 _atom_site_hse06_10hf_ddec_spin_density
 _atom_site_hse06_10hf_ddec_sum_bond_order
 _atom_site_hse06_10hf_magmom
 _atom_site_hse06_bader_spin_density
 _atom_site_hse06_ddec_charge
 _atom_site_hse06_ddec_spin_density
 _atom_site_hse06_ddec_sum_bond_order
 _atom_site_hse06_magmom
 _atom_site_pbe_bader_spin_density
 _atom_site_pbe_cm5_charge
 _atom_site_pbe_ddec_charge
 _atom_site_pbe_ddec_spin_density
 _atom_site_pbe_ddec_sum_bond_order
 _atom_site_pbe_magmom
Zn  Zn0  1  0.99999751  0.68330144  0.19898645  1  0  0.554035  0  2.262965  0  0  0.427417  0  2.697996  0  0  0.465955  0  2.670606  0  0  0.305686  0.400755  0  2.717505  0
Zn  Zn1  1  0.99999571  0.31672333  0.80100716  1  0  0.553964  0  2.262958  0  0  0.427374  0  2.698072  0  0  0.465901  0  2.670686  0  0  0.30564  0.400715  0  2.717568  0
Zn  Zn2  1  0.49999962  0.18326882  0.30101376  1  0  0.553874  0  2.262728  0  0  0.427384  0  2.697636  0  0  0.465926  0  2.670247  0  0  0.305655  0.400725  0  2.717122  0
Zn  Zn3  1  0.50000022  0.81672435  0.69898141  1  0  0.553923  0  2.262839  0  0  0.427337  0  2.697801  0  0  0.465882  0  2.670415  0  0  0.305657  0.400677  0  2.717285  0
Te  Te4  1  0.00000246  0.93336286  0.33295103  1  0  -0.676551  0  2.253235  0  0  -0.579145  0  2.736602  0  0  -0.61585  0  2.711363  0  0  -0.279771  -0.553587  0  2.755739  0
Te  Te5  1  0.99999967  0.06661974  0.66705551  1  0  -0.676496  0  2.25338  0  0  -0.579152  0  2.736863  0  0  -0.615855  0  2.711621  0  0  -0.279775  -0.553608  0  2.755998  0
Te  Te6  1  0.49999475  0.43344363  0.16705861  1  0  -0.676655  0  2.253543  0  0  -0.579326  0  2.737063  0  0  -0.616033  0  2.711821  0  0  -0.279821  -0.553767  0  2.756204  0
Te  Te7  1  0.50000047  0.56658124  0.83294613  1  0  -0.676646  0  2.253387  0  0  -0.579228  0  2.736794  0  0  -0.615929  0  2.711552  0  0  -0.279816  -0.553678  0  2.755926  0
H  H8  1  0.18702558  0.05614711  0.12522982  1  0  0.260731  0  0.954809  0  0  0.254218  0  1.011965  0  0  0.260519  0  1.008094  0  0  0.255314  0.249713  0  1.014848  0
H  H9  1  0.18703213  0.94389345  0.87477118  1  0  0.260819  0  0.954827  0  0  0.254334  0  1.012  0  0  0.260633  0  1.008132  0  0  0.255326  0.249826  0  1.014882  0
H  H10  1  0.31299644  0.55609774  0.37477223  1  0  0.260797  0  0.954879  0  0  0.254316  0  1.012091  0  0  0.260615  0  1.008224  0  0  0.255338  0.249809  0  1.014973  0
H  H11  1  0.31296827  0.44388511  0.62522883  1  0  0.260728  0  0.954748  0  0  0.254232  0  1.011914  0  0  0.260532  0  1.008046  0  0  0.255279  0.249725  0  1.014796  0
H  H12  1  0.81296273  0.94387599  0.87476654  1  0  0.260768  0  0.954708  0  0  0.254294  0  1.011889  0  0  0.260595  0  1.00802  0  0  0.255286  0.249787  0  1.01477  0
H  H13  1  0.81296079  0.05614374  0.12523237  1  0  0.260858  0  0.954648  0  0  0.254337  0  1.011805  0  0  0.260637  0  1.007934  0  0  0.255406  0.249833  0  1.014686  0
H  H14  1  0.68702183  0.44388486  0.62523371  1  0  0.260921  0  0.954808  0  0  0.254399  0  1.011991  0  0  0.260698  0  1.00812  0  0  0.25538  0.249892  0  1.014873  0
H  H15  1  0.68704540  0.55609748  0.37477232  1  0  0.260777  0  0.954642  0  0  0.254311  0  1.01184  0  0  0.260611  0  1.00797  0  0  0.255315  0.249803  0  1.014723  0
H  H16  1  0.79729799  0.77979222  0.01378770  1  0  0.057034  0  0.935753  0  0  0.071549  0  1.005113  0  0  0.072632  0  1.004485  0  0  0.090177  0.070722  0  1.005602  0
H  H17  1  0.79732210  0.22023473  0.98620821  1  0  0.057074  0  0.936135  0  0  0.07157  0  1.005358  0  0  0.072651  0  1.004727  0  0  0.090247  0.070745  0  1.005845  0
H  H18  1  0.70264682  0.27974784  0.48622170  1  0  0.057091  0  0.93629  0  0  0.071502  0  1.005513  0  0  0.072587  0  1.004883  0  0  0.090243  0.070672  0  1.005997  0
H  H19  1  0.70271924  0.72019735  0.51377775  1  0  0.056903  0  0.935688  0  0  0.071432  0  1.00511  0  0  0.072523  0  1.004484  0  0  0.09014  0.070601  0  1.005604  0
H  H20  1  0.20263963  0.22024497  0.98621225  1  0  0.057119  0  0.935884  0  0  0.071619  0  1.005134  0  0  0.072702  0  1.004502  0  0  0.090268  0.070792  0  1.005623  0
H  H21  1  0.20265008  0.77979718  0.01378576  1  0  0.057074  0  0.935956  0  0  0.071626  0  1.005258  0  0  0.072707  0  1.004629  0  0  0.090285  0.070801  0  1.005743  0
H  H22  1  0.29737376  0.72022067  0.51377346  1  0  0.057012  0  0.935713  0  0  0.071521  0  1.005121  0  0  0.072611  0  1.004495  0  0  0.090276  0.070693  0  1.005609  0
H  H23  1  0.29733359  0.27976940  0.48622101  1  0  0.057146  0  0.936084  0  0  0.07157  0  1.00529  0  0  0.07266  0  1.004662  0  0  0.090234  0.070739  0  1.005778  0
C  C24  1  0.99998828  0.89028263  0.02665476  1  0  0.047502  0  3.628627  0  0  -0.006878  0  3.889321  0  0  -0.003148  0  3.901127  0  0  -0.082116  -0.009322  0  3.881133  0
C  C25  1  0.99997269  0.10975799  0.97334723  1  0  0.047398  0  3.628977  0  0  -0.00654  0  3.889376  0  0  -0.002825  0  3.901192  0  0  -0.081982  -0.008983  0  3.881188  0
C  C26  1  0.50002380  0.39021226  0.47335044  1  0  0.047329  0  3.629625  0  0  -0.006246  0  3.889616  0  0  -0.002536  0  3.90146  0  0  -0.081714  -0.008671  0  3.881389  0
C  C27  1  0.50001521  0.60968932  0.52664473  1  0  0.047837  0  3.628169  0  0  -0.006648  0  3.889002  0  0  -0.002954  0  3.90085  0  0  -0.082168  -0.009082  0  3.880784  0
N  N28  1  0.99998115  0.95019708  0.11236855  1  0  -0.560545  0  3.194759  0  0  -0.493017  0  3.421382  0  0  -0.513343  0  3.422687  0  0  -0.634964  -0.478812  0  3.420027  0
N  N29  1  0.00000947  0.04983306  0.88763499  1  0  -0.560546  0  3.194904  0  0  -0.493392  0  3.421758  0  0  -0.513708  0  3.423066  0  0  -0.63496  -0.479177  0  3.420388  0
N  N30  1  0.49999305  0.45014200  0.38763926  1  0  -0.560504  0  3.195308  0  0  -0.493524  0  3.422193  0  0  -0.51384  0  3.42351  0  0  -0.635125  -0.479307  0  3.42082  0
N  N31  1  0.50002292  0.54983179  0.61236668  1  0  -0.560772  0  3.194885  0  0  -0.493242  0  3.421562  0  0  -0.513555  0  3.42288  0  0  -0.63494  -0.479033  0  3.420193  0
