# generated using pymatgen
data_CuH2C2IN
_symmetry_space_group_name_H-M   'P 1'
_cell_length_a   4.05644847
_cell_length_b   6.93807784
_cell_length_c   14.90698536
_cell_angle_alpha   89.99943688
_cell_angle_beta   89.99938849
_cell_angle_gamma   98.40279272
_symmetry_Int_Tables_number   1
_chemical_formula_structural   CuH2C2IN
_chemical_formula_sum   'Cu4 H8 C8 I4 N4'
_cell_volume   415.03783877
_cell_formula_units_Z   4
loop_
 _symmetry_equiv_pos_site_id
 _symmetry_equiv_pos_as_xyz
  1  'x, y, z'
loop_
 _atom_site_type_symbol
 _atom_site_label
 _atom_site_symmetry_multiplicity
 _atom_site_fract_x
 _atom_site_fract_y
 _atom_site_fract_z
 _atom_site_occupancy
 _atom_site_hle17_bader_spin_density
 _atom_site_hle17_ddec_charge
 _atom_site_hle17_ddec_spin_density
 _atom_site_hle17_ddec_sum_bond_order
 _atom_site_hle17_magmom
 _atom_site_hse06_10hf_bader_spin_density
 _atom_site_hse06_10hf_ddec_charge
 _atom_site_hse06_10hf_ddec_spin_density
 _atom_site_hse06_10hf_ddec_sum_bond_order
 _atom_site_hse06_10hf_magmom
 _atom_site_hse06_bader_spin_density
 _atom_site_hse06_ddec_charge
 _atom_site_hse06_ddec_spin_density
 _atom_site_hse06_ddec_sum_bond_order
 _atom_site_hse06_magmom
 _atom_site_pbe_bader_spin_density
 _atom_site_pbe_cm5_charge
 _atom_site_pbe_ddec_charge
 _atom_site_pbe_ddec_spin_density
 _atom_site_pbe_ddec_sum_bond_order
 _atom_site_pbe_magmom
Cu  Cu0  1  0.75270060  0.00006459  0.55621869  1  0  0.222562  0  2.255591  0  0  0.148284  0  2.740731  0  0  0.161899  0  2.682481  0  0  0.235328  0.141288  0  2.779818  0
Cu  Cu1  1  0.75270599  0.00006844  0.94378129  1  0  0.222541  0  2.255744  0  0  0.148346  0  2.740877  0  0  0.161947  0  2.682633  0  0  0.235357  0.141354  0  2.779954  0
Cu  Cu2  1  0.24730637  0.99993203  0.44378133  1  0  0.222545  0  2.255632  0  0  0.148318  0  2.740806  0  0  0.161933  0  2.682553  0  0  0.235323  0.141327  0  2.779883  0
Cu  Cu3  1  0.24733703  0.99994594  0.05621739  1  0  0.222548  0  2.255745  0  0  0.148337  0  2.740875  0  0  0.161944  0  2.682581  0  0  0.235369  0.141342  0  2.779959  0
H  H4  1  0.88922756  0.94292386  0.75000140  1  0  0.062305  0  0.952575  0  0  0.063324  0  1.034384  0  0  0.067017  0  1.029257  0  0  0.107424  0.060308  0  1.038411  0
H  H5  1  0.11078087  0.05709022  0.24999661  1  0  0.062263  0  0.952489  0  0  0.063309  0  1.034275  0  0  0.067  0  1.029152  0  0  0.10744  0.060293  0  1.038299  0
H  H6  1  0.57631901  0.39455948  0.60467388  1  0  0.081817  0  0.960239  0  0  0.087171  0  1.03198  0  0  0.090675  0  1.027512  0  0  0.098563  0.083927  0  1.036282  0
H  H7  1  0.57632267  0.39456890  0.89533090  1  0  0.08196  0  0.960116  0  0  0.087288  0  1.031906  0  0  0.090817  0  1.027388  0  0  0.098547  0.084031  0  1.03621  0
H  H8  1  0.42363231  0.60543083  0.39532883  1  0  0.081894  0  0.960101  0  0  0.087207  0  1.031915  0  0  0.090724  0  1.027417  0  0  0.098494  0.083961  0  1.036226  0
H  H9  1  0.42370142  0.60543804  0.10466979  1  0  0.081934  0  0.960006  0  0  0.087251  0  1.031829  0  0  0.090788  0  1.027294  0  0  0.098545  0.083997  0  1.036128  0
H  H10  1  0.47068879  0.56574559  0.74999881  1  0  0.115949  0  0.968924  0  0  0.122967  0  1.034217  0  0  0.126578  0  1.033933  0  0  0.094821  0.120096  0  1.035035  0
H  H11  1  0.52926253  0.43424472  0.25000322  1  0  0.115884  0  0.969021  0  0  0.122917  0  1.034294  0  0  0.126528  0  1.034011  0  0  0.094798  0.12005  0  1.035108  0
C  C12  1  0.79120170  0.08152613  0.74999808  1  0  0.286904  0  3.650001  0  0  0.235035  0  3.911227  0  0  0.249902  0  3.923503  0  0  0.164709  0.225055  0  3.903814  0
C  C13  1  0.20881203  0.91846763  0.24999725  1  0  0.286867  0  3.650552  0  0  0.235032  0  3.911847  0  0  0.249895  0  3.924132  0  0  0.164571  0.225059  0  3.90442  0
C  C14  1  0.62025912  0.33281193  0.67015198  1  0  0.17583  0  3.632157  0  0  0.140408  0  3.880373  0  0  0.153921  0  3.892312  0  0  0.050681  0.130741  0  3.873886  0
C  C15  1  0.62025839  0.33282298  0.82983886  1  0  0.175625  0  3.630999  0  0  0.140305  0  3.879258  0  0  0.153817  0  3.891213  0  0  0.050723  0.130651  0  3.872752  0
C  C16  1  0.37972975  0.66716999  0.32984402  1  0  0.175898  0  3.630973  0  0  0.140572  0  3.879217  0  0  0.1541  0  3.891145  0  0  0.050799  0.130893  0  3.872741  0
C  C17  1  0.37975781  0.66717081  0.17017189  1  0  0.175734  0  3.631301  0  0  0.140406  0  3.879518  0  0  0.15392  0  3.891476  0  0  0.050694  0.130752  0  3.873016  0
C  C18  1  0.56146268  0.42555155  0.74999027  1  0  -0.160878  0  3.703202  0  0  -0.16763  0  3.946372  0  0  -0.179693  0  3.966728  0  0  -0.089287  -0.160523  0  3.934463  0
C  C19  1  0.43851958  0.57444485  0.24999969  1  0  -0.160961  0  3.703865  0  0  -0.167718  0  3.947002  0  0  -0.179791  0  3.967365  0  0  -0.089318  -0.160607  0  3.935093  0
I  I20  1  0.81675655  0.24567903  0.42267597  1  0  -0.335818  0  1.782946  0  0  -0.283684  0  2.247581  0  0  -0.301813  0  2.205939  0  0  -0.16939  -0.26989  0  2.277632  0
I  I21  1  0.81678064  0.24568944  0.07732244  1  0  -0.335813  0  1.782965  0  0  -0.283684  0  2.247613  0  0  -0.301816  0  2.205947  0  0  -0.169422  -0.269889  0  2.277654  0
I  I22  1  0.18324170  0.75431170  0.57732137  1  0  -0.335808  0  1.782933  0  0  -0.283677  0  2.247569  0  0  -0.3018  0  2.205928  0  0  -0.169393  -0.269865  0  2.277586  0
I  I23  1  0.18322270  0.75431296  0.92268027  1  0  -0.335807  0  1.782921  0  0  -0.283674  0  2.247566  0  0  -0.301809  0  2.205919  0  0  -0.169402  -0.269858  0  2.277565  0
N  N24  1  0.73579454  0.15975823  0.67018104  1  0  -0.296486  0  3.32375  0  0  -0.218907  0  3.60399  0  0  -0.236468  0  3.612592  0  0  -0.353995  -0.208428  0  3.599001  0
N  N25  1  0.73580357  0.15973593  0.82982365  1  0  -0.296491  0  3.322977  0  0  -0.2192  0  3.603545  0  0  -0.236769  0  3.612147  0  0  -0.354054  -0.208723  0  3.598548  0
N  N26  1  0.26418885  0.84025417  0.32981764  1  0  -0.296512  0  3.323086  0  0  -0.219175  0  3.603594  0  0  -0.236746  0  3.61219  0  0  -0.353953  -0.208692  0  3.598598  0
N  N27  1  0.26421161  0.84027530  0.17018241  1  0  -0.296486  0  3.323173  0  0  -0.21913  0  3.603667  0  0  -0.236699  0  3.612266  0  0  -0.35397  -0.20865  0  3.598671  0
