# generated using pymatgen
data_TbH6C4O6F
_symmetry_space_group_name_H-M   'P 1'
_cell_length_a   6.73931649
_cell_length_b   6.73930018
_cell_length_c   8.87072773
_cell_angle_alpha   108.86275255
_cell_angle_beta   108.86291824
_cell_angle_gamma   93.87052687
_symmetry_Int_Tables_number   1
_chemical_formula_structural   TbH6C4O6F
_chemical_formula_sum   'Tb2 H12 C8 O12 F2'
_cell_volume   354.06071687
_cell_formula_units_Z   2
loop_
 _symmetry_equiv_pos_site_id
 _symmetry_equiv_pos_as_xyz
  1  'x, y, z'
loop_
 _atom_site_type_symbol
 _atom_site_label
 _atom_site_symmetry_multiplicity
 _atom_site_fract_x
 _atom_site_fract_y
 _atom_site_fract_z
 _atom_site_occupancy
 _atom_site_pbe_bader_spin_density
 _atom_site_pbe_cm5_charge
 _atom_site_pbe_ddec_charge
 _atom_site_pbe_ddec_spin_density
 _atom_site_pbe_ddec_sum_bond_order
 _atom_site_pbe_magmom
Tb  Tb0  1  0.90193044  0.90194432  0.26344719  1  0  1.475185  2.09745  0  2.183  0
Tb  Tb1  1  0.09806370  0.09806181  0.73655243  1  0  1.475175  2.09743  0  2.183055  0
H  H2  1  0.44847646  0.76746439  0.44589484  1  0  0.11839  0.118474  0  0.981931  0
H  H3  1  0.23253936  0.55152553  0.55410680  1  0  0.118382  0.118488  0  0.981899  0
H  H4  1  0.55152100  0.23253384  0.55410367  1  0  0.118376  0.11846  0  0.981959  0
H  H5  1  0.76746522  0.44847759  0.44589348  1  0  0.118359  0.118464  0  0.981928  0
H  H6  1  0.33944311  0.55666228  0.24048544  1  0  0.124567  0.127223  0  1.000688  0
H  H7  1  0.44333966  0.66055451  0.75951937  1  0  0.12455  0.127216  0  1.000722  0
H  H8  1  0.66055568  0.44333441  0.75951642  1  0  0.124549  0.127184  0  1.000679  0
H  H9  1  0.55666566  0.33944386  0.24048108  1  0  0.124535  0.12721  0  1.000711  0
H  H10  1  0.75217709  0.90733384  0.91195325  1  0  0.305779  0.395351  0  0.94191  0
H  H11  1  0.09268469  0.24782805  0.08803263  1  0  0.30598  0.395598  0  0.941672  0
H  H12  1  0.24783548  0.09265195  0.08804929  1  0  0.30571  0.39528  0  0.941932  0
H  H13  1  0.90733066  0.75215612  0.91196343  1  0  0.305853  0.395372  0  0.941904  0
C  C14  1  0.40574280  0.86515944  0.23075161  1  0  0.235488  0.660036  0  4.130452  0
C  C15  1  0.13483545  0.59425898  0.76925669  1  0  0.235506  0.660217  0  4.130701  0
C  C16  1  0.59425514  0.13483245  0.76924776  1  0  0.235476  0.660034  0  4.130436  0
C  C17  1  0.86517073  0.40574419  0.23074624  1  0  0.235465  0.660157  0  4.130864  0
C  C18  1  0.45839919  0.70538785  0.31821799  1  0  -0.058006  -0.137713  0  3.8633  0
C  C19  1  0.29462107  0.54159598  0.68178335  1  0  -0.058007  -0.137825  0  3.863216  0
C  C20  1  0.54159198  0.29461026  0.68177898  1  0  -0.057943  -0.137598  0  3.863254  0
C  C21  1  0.70538406  0.45841033  0.31821783  1  0  -0.057945  -0.137776  0  3.863228  0
O  O22  1  0.53628876  0.92454716  0.17122931  1  0  -0.378549  -0.622199  0  2.241094  0
O  O23  1  0.07546519  0.46371351  0.82876874  1  0  -0.378618  -0.622302  0  2.241331  0
O  O24  1  0.46370224  0.07544133  0.82875967  1  0  -0.378583  -0.622217  0  2.241077  0
O  O25  1  0.92454743  0.53629937  0.17124146  1  0  -0.378624  -0.622308  0  2.241297  0
O  O26  1  0.23135808  0.93232146  0.21943858  1  0  -0.381537  -0.659589  0  2.297151  0
O  O27  1  0.06768603  0.76862233  0.78055940  1  0  -0.381486  -0.659664  0  2.297618  0
O  O28  1  0.76863529  0.06767995  0.78056535  1  0  -0.381507  -0.659616  0  2.297272  0
O  O29  1  0.93231374  0.23138062  0.21943292  1  0  -0.381453  -0.659661  0  2.297696  0
O  O30  1  0.66867403  0.66867506  0.32921543  1  0  -0.267223  -0.286072  0  2.733957  0
O  O31  1  0.33132759  0.33132006  0.67078334  1  0  -0.267265  -0.286162  0  2.734169  0
O  O32  1  0.79591698  0.79591056  0.95968865  1  0  -0.639123  -0.844065  0  2.13305  0
O  O33  1  0.20405897  0.20410802  0.04031184  1  0  -0.639165  -0.844194  0  2.133055  0
F  F34  1  0.12984899  0.87014627  0.49999872  1  0  -0.501175  -0.73034  0  1.05794  0
F  F35  1  0.87014284  0.12986459  0.50000149  1  0  -0.501116  -0.73034  0  1.057845  0
