# generated using pymatgen
data_AlZnH3C2N3F5
_symmetry_space_group_name_H-M   'P 1'
_cell_length_a   7.21847858
_cell_length_b   7.37968238
_cell_length_c   7.37968189
_cell_angle_alpha   74.41043734
_cell_angle_beta   60.71891955
_cell_angle_gamma   60.71890911
_symmetry_Int_Tables_number   1
_chemical_formula_structural   AlZnH3C2N3F5
_chemical_formula_sum   'Al2 Zn2 H6 C4 N6 F10'
_cell_volume   298.85214425
_cell_formula_units_Z   2
loop_
 _symmetry_equiv_pos_site_id
 _symmetry_equiv_pos_as_xyz
  1  'x, y, z'
loop_
 _atom_site_type_symbol
 _atom_site_label
 _atom_site_symmetry_multiplicity
 _atom_site_fract_x
 _atom_site_fract_y
 _atom_site_fract_z
 _atom_site_occupancy
 _atom_site_pbe_bader_spin_density
 _atom_site_pbe_cm5_charge
 _atom_site_pbe_ddec_charge
 _atom_site_pbe_ddec_spin_density
 _atom_site_pbe_ddec_sum_bond_order
 _atom_site_pbe_magmom
Al  Al0  1  0.50000120  0.99999871  0.99999954  1  0  0.288329  1.726797  0  2.522614  0
Al  Al1  1  0.00000000  0.00000000  0.00000000  1  0  0.288389  1.726385  0  2.523248  0
Zn  Zn2  1  0.00000041  0.49999931  0.00000043  1  0  0.715065  0.979535  0  2.22871  0
Zn  Zn3  1  0.99999960  0.00000049  0.50000022  1  0  0.715061  0.979647  0  2.228667  0
H  H4  1  0.66510633  0.82080256  0.34894747  1  0  0.148849  0.121859  0  1.016711  0
H  H5  1  0.33489401  0.65105235  0.17919755  1  0  0.148856  0.121869  0  1.016725  0
H  H6  1  0.33489237  0.17919754  0.65105127  1  0  0.148853  0.121887  0  1.016689  0
H  H7  1  0.66510771  0.34894790  0.82080119  1  0  0.148849  0.121894  0  1.016706  0
H  H8  1  0.50460423  0.74538388  0.74538396  1  0  0.328946  0.308255  0  0.948227  0
H  H9  1  0.49539590  0.25461555  0.25461633  1  0  0.328946  0.308262  0  0.94821  0
C  C10  1  0.70236525  0.66895216  0.42626558  1  0  0.181011  0.174649  0  3.874939  0
C  C11  1  0.29763527  0.57373258  0.33104673  1  0  0.181007  0.174608  0  3.874967  0
C  C12  1  0.29763488  0.33104728  0.57373472  1  0  0.181032  0.174646  0  3.874884  0
C  C13  1  0.70236561  0.42626691  0.66895202  1  0  0.181022  0.174574  0  3.875015  0
N  N14  1  0.83853074  0.48919392  0.33371506  1  0  -0.22346  -0.198794  0  3.385892  0
N  N15  1  0.16147094  0.66628402  0.51080633  1  0  -0.223455  -0.19876  0  3.385853  0
N  N16  1  0.16147023  0.51080626  0.66628523  1  0  -0.223488  -0.198844  0  3.385908  0
N  N17  1  0.83852920  0.33371541  0.48919397  1  0  -0.223476  -0.198799  0  3.385916  0
N  N18  1  0.61517920  0.63479443  0.63479539  1  0  -0.352896  -0.201972  0  3.609007  0
N  N19  1  0.38482094  0.36520500  0.36520490  1  0  -0.352908  -0.202001  0  3.608983  0
F  F20  1  0.69152938  0.05848727  0.05848784  1  0  -0.149968  -0.587625  0  1.240393  0
F  F21  1  0.30847075  0.94151216  0.94151246  1  0  -0.149972  -0.587638  0  1.240408  0
F  F22  1  0.32348871  0.27550189  0.99084923  1  0  -0.260473  -0.605023  0  1.176413  0
F  F23  1  0.67651060  0.00915047  0.72449911  1  0  -0.260472  -0.605063  0  1.176461  0
F  F24  1  0.08982325  0.72448317  0.00914972  1  0  -0.260683  -0.604984  0  1.176358  0
F  F25  1  0.91017413  0.99085084  0.27551810  1  0  -0.260681  -0.60497  0  1.176322  0
F  F26  1  0.67650924  0.72449815  0.00915106  1  0  -0.260462  -0.605012  0  1.176416  0
F  F27  1  0.32348954  0.99084897  0.27550119  1  0  -0.260458  -0.605446  0  1.17678  0
F  F28  1  0.91017343  0.27551892  0.99085213  1  0  -0.260679  -0.60497  0  1.176351  0
F  F29  1  0.08982727  0.00914654  0.72448064  1  0  -0.260684  -0.604966  0  1.176304  0
