# generated using pymatgen
data_AgH8C8NO2
_symmetry_space_group_name_H-M   'P 1'
_cell_length_a   4.81025360
_cell_length_b   7.94029910
_cell_length_c   11.68856671
_cell_angle_alpha   99.11627133
_cell_angle_beta   99.55852110
_cell_angle_gamma   102.88860861
_symmetry_Int_Tables_number   1
_chemical_formula_structural   AgH8C8NO2
_chemical_formula_sum   'Ag2 H16 C16 N2 O4'
_cell_volume   420.18617153
_cell_formula_units_Z   2
loop_
 _symmetry_equiv_pos_site_id
 _symmetry_equiv_pos_as_xyz
  1  'x, y, z'
loop_
 _atom_site_type_symbol
 _atom_site_label
 _atom_site_symmetry_multiplicity
 _atom_site_fract_x
 _atom_site_fract_y
 _atom_site_fract_z
 _atom_site_occupancy
 _atom_site_hle17_bader_spin_density
 _atom_site_hle17_ddec_charge
 _atom_site_hle17_ddec_spin_density
 _atom_site_hle17_ddec_sum_bond_order
 _atom_site_hle17_magmom
 _atom_site_hse06_10hf_bader_spin_density
 _atom_site_hse06_10hf_ddec_charge
 _atom_site_hse06_10hf_ddec_spin_density
 _atom_site_hse06_10hf_ddec_sum_bond_order
 _atom_site_hse06_10hf_magmom
 _atom_site_hse06_bader_spin_density
 _atom_site_hse06_ddec_charge
 _atom_site_hse06_ddec_spin_density
 _atom_site_hse06_ddec_sum_bond_order
 _atom_site_hse06_magmom
 _atom_site_pbe_bader_spin_density
 _atom_site_pbe_cm5_charge
 _atom_site_pbe_ddec_charge
 _atom_site_pbe_ddec_spin_density
 _atom_site_pbe_ddec_sum_bond_order
 _atom_site_pbe_magmom
Ag  Ag0  1  0.74516905  0.94626471  0.91162698  1  0  0.526577  0  1.468582  0  0  0.395804  0  1.939779  0  0  0.431383  0  1.881296  0  0  0.405407  0.371427  0  1.979947  0
Ag  Ag1  1  0.25481320  0.05374333  0.08837371  1  0  0.526642  0  1.468532  0  0  0.395872  0  1.939747  0  0  0.431447  0  1.881267  0  0  0.405456  0.371501  0  1.979902  0
H  H2  1  0.52499676  0.79315458  0.29423852  1  0  0.102318  0  0.922685  0  0  0.120796  0  0.978519  0  0  0.122774  0  0.977415  0  0  0.100941  0.119399  0  0.979295  0
H  H3  1  0.47500206  0.20684782  0.70576942  1  0  0.102228  0  0.922778  0  0  0.120736  0  0.978562  0  0  0.122715  0  0.977457  0  0  0.100929  0.119346  0  0.979336  0
H  H4  1  0.75800183  0.64893933  0.28778269  1  0  0.085068  0  0.956785  0  0  0.099963  0  1.020491  0  0  0.100914  0  1.0215  0  0  0.090571  0.099292  0  1.019801  0
H  H5  1  0.24201039  0.35106966  0.71222091  1  0  0.085058  0  0.95676  0  0  0.099954  0  1.020464  0  0  0.100906  0  1.021472  0  0  0.090556  0.099288  0  1.019775  0
H  H6  1  0.19650586  0.61467031  0.10637655  1  0  0.088608  0  0.941571  0  0  0.108025  0  1.001519  0  0  0.10841  0  1.001974  0  0  0.098943  0.10764  0  1.001341  0
H  H7  1  0.80350483  0.38533077  0.89362431  1  0  0.088623  0  0.941471  0  0  0.108001  0  1.001506  0  0  0.108388  0  1.00196  0  0  0.098947  0.107614  0  1.001326  0
H  H8  1  0.41320774  0.46471275  0.09713896  1  0  0.088197  0  0.945258  0  0  0.106711  0  1.008245  0  0  0.106564  0  1.009728  0  0  0.096398  0.106724  0  1.007297  0
H  H9  1  0.58681173  0.53529342  0.90286905  1  0  0.088282  0  0.945025  0  0  0.106723  0  1.008107  0  0  0.106573  0  1.009597  0  0  0.09639  0.106738  0  1.007158  0
H  H10  1  0.81591972  0.32238226  0.07148490  1  0  0.086854  0  0.972984  0  0  0.090959  0  1.04756  0  0  0.094906  0  1.042762  0  0  0.111286  0.087995  0  1.051262  0
H  H11  1  0.18408791  0.67762161  0.92851095  1  0  0.086939  0  0.972937  0  0  0.091027  0  1.047518  0  0  0.094981  0  1.04272  0  0  0.11129  0.088064  0  1.051219  0
H  H12  1  0.43697494  0.53292304  0.40264852  1  0  0.087921  0  0.967681  0  0  0.100279  0  1.030955  0  0  0.102428  0  1.030181  0  0  0.101689  0.098702  0  1.031582  0
H  H13  1  0.56302797  0.46706087  0.59735068  1  0  0.087931  0  0.967633  0  0  0.100297  0  1.030911  0  0  0.102439  0  1.030147  0  0  0.101728  0.098721  0  1.031545  0
H  H14  1  0.10048667  0.33264965  0.49524267  1  0  0.091475  0  0.967592  0  0  0.102962  0  1.026532  0  0  0.105838  0  1.025794  0  0  0.101161  0.100867  0  1.027251  0
H  H15  1  0.89951109  0.66732779  0.50475030  1  0  0.091434  0  0.967611  0  0  0.102931  0  1.02653  0  0  0.105805  0  1.025796  0  0  0.101139  0.100829  0  1.027254  0
H  H16  1  0.62987922  0.14052663  0.36934748  1  0  0.077008  0  0.922382  0  0  0.088509  0  0.978926  0  0  0.091373  0  0.976754  0  0  0.114363  0.086388  0  0.980628  0
H  H17  1  0.37011549  0.85946285  0.63064328  1  0  0.076973  0  0.922394  0  0  0.088547  0  0.97888  0  0  0.091389  0  0.976732  0  0  0.114387  0.086423  0  0.980585  0
C  C18  1  0.76112466  0.80767804  0.15625925  1  0  0.684104  0  3.855178  0  0  0.635319  0  4.146045  0  0  0.670032  0  4.14229  0  0  0.200653  0.611722  0  4.147706  0
C  C19  1  0.23886842  0.19233510  0.84374617  1  0  0.684196  0  3.855185  0  0  0.635294  0  4.146207  0  0  0.67001  0  4.142456  0  0  0.200637  0.611697  0  4.147878  0
C  C20  1  0.59934815  0.69990341  0.23350988  1  0  -0.248231  0  3.680031  0  0  -0.283232  0  3.926681  0  0  -0.289341  0  3.936098  0  0  -0.163955  -0.2789  0  3.919881  0
C  C21  1  0.40065632  0.30010694  0.76649594  1  0  -0.248158  0  3.68005  0  0  -0.283078  0  3.926639  0  0  -0.289186  0  3.936051  0  0  -0.16389  -0.278761  0  3.919853  0
C  C22  1  0.33923290  0.55401710  0.16075743  1  0  -0.13551  0  3.72396  0  0  -0.182751  0  3.970446  0  0  -0.18345  0  3.986439  0  0  -0.165544  -0.182  0  3.959429  0
C  C23  1  0.66077273  0.44598666  0.83924512  1  0  -0.135519  0  3.723736  0  0  -0.182746  0  3.97032  0  0  -0.183456  0  3.986336  0  0  -0.165573  -0.181995  0  3.959303  0
C  C24  1  0.89027738  0.32855497  0.16595269  1  0  0.042778  0  3.692323  0  0  0.011699  0  3.949576  0  0  0.01685  0  3.963911  0  0  0.035038  0.008192  0  3.940281  0
C  C25  1  0.10972397  0.67144896  0.83404362  1  0  0.042637  0  3.692465  0  0  0.011572  0  3.949741  0  0  0.016714  0  3.964087  0  0  0.034966  0.008065  0  3.940444  0
C  C26  1  0.15773983  0.44354822  0.22824751  1  0  0.067153  0  3.721646  0  0  0.09008  0  3.96037  0  0  0.08743  0  3.984398  0  0  -0.001459  0.091533  0  3.94436  0
C  C27  1  0.84226185  0.55645167  0.77175092  1  0  0.06701  0  3.721872  0  0  0.089968  0  3.960598  0  0  0.08732  0  3.984625  0  0  -0.001422  0.09143  0  3.944579  0
C  C28  1  0.23348904  0.44529666  0.34918250  1  0  -0.082768  0  3.721918  0  0  -0.108717  0  3.969705  0  0  -0.108049  0  3.990368  0  0  -0.07994  -0.108922  0  3.955682  0
C  C29  1  0.76651206  0.55469262  0.65081550  1  0  -0.082683  0  3.72192  0  0  -0.108672  0  3.969769  0  0  -0.108  0  3.990427  0  0  -0.080001  -0.108877  0  3.955736  0
C  C30  1  0.04648183  0.33441608  0.40123221  1  0  -0.126667  0  3.789639  0  0  -0.137992  0  4.043187  0  0  -0.143629  0  4.065355  0  0  -0.091393  -0.134345  0  4.028274  0
C  C31  1  0.95351953  0.66556926  0.59876277  1  0  -0.126805  0  3.789633  0  0  -0.138111  0  4.043213  0  0  -0.143749  0  4.065376  0  0  -0.091456  -0.13446  0  4.028304  0
C  C32  1  0.78444036  0.22701282  0.33190617  1  0  0.107453  0  3.739038  0  0  0.076598  0  3.994667  0  0  0.081551  0  4.014368  0  0  0.034701  0.073346  0  3.981301  0
C  C33  1  0.21555764  0.77297927  0.66808512  1  0  0.107649  0  3.738914  0  0  0.076712  0  3.994566  0  0  0.081684  0  4.014267  0  0  0.034772  0.073466  0  3.981197  0
N  N34  1  0.70578191  0.22513780  0.21574448  1  0  -0.286633  0  3.26137  0  0  -0.217701  0  3.540991  0  0  -0.234038  0  3.558351  0  0  -0.328829  -0.206552  0  3.529126  0
N  N35  1  0.29421552  0.77486222  0.78424940  1  0  -0.286533  0  3.261295  0  0  -0.21761  0  3.540987  0  0  -0.233942  0  3.558335  0  0  -0.328748  -0.206464  0  3.529125  0
O  O36  1  0.61549520  0.80656180  0.05434022  1  0  -0.644929  0  2.148136  0  0  -0.560145  0  2.426613  0  0  -0.592803  0  2.414302  0  0  -0.327129  -0.537509  0  2.434281  0
O  O37  1  0.38450057  0.19344338  0.94566357  1  0  -0.644971  0  2.148166  0  0  -0.560179  0  2.426723  0  0  -0.592835  0  2.414408  0  0  -0.327121  -0.53752  0  2.434345  0
O  O38  1  0.02529594  0.89052910  0.19965697  1  0  -0.610822  0  2.037045  0  0  -0.537194  0  2.296165  0  0  -0.569166  0  2.286982  0  0  -0.332933  -0.515044  0  2.301691  0
O  O39  1  0.97469535  0.10948938  0.80034895  1  0  -0.610886  0  2.037014  0  0  -0.537211  0  2.29619  0  0  -0.569183  0  2.287009  0  0  -0.332958  -0.51506  0  2.30172  0
