# generated using pymatgen
data_ZnH2C2BrN3
_symmetry_space_group_name_H-M   'P 1'
_cell_length_a   6.35560791
_cell_length_b   8.98973572
_cell_length_c   9.71674747
_cell_angle_alpha   90.00003945
_cell_angle_beta   90.00019773
_cell_angle_gamma   102.51206588
_symmetry_Int_Tables_number   1
_chemical_formula_structural   ZnH2C2BrN3
_chemical_formula_sum   'Zn4 H8 C8 Br4 N12'
_cell_volume   541.98362465
_cell_formula_units_Z   4
loop_
 _symmetry_equiv_pos_site_id
 _symmetry_equiv_pos_as_xyz
  1  'x, y, z'
loop_
 _atom_site_type_symbol
 _atom_site_label
 _atom_site_symmetry_multiplicity
 _atom_site_fract_x
 _atom_site_fract_y
 _atom_site_fract_z
 _atom_site_occupancy
 _atom_site_hle17_bader_spin_density
 _atom_site_hle17_ddec_charge
 _atom_site_hle17_ddec_spin_density
 _atom_site_hle17_ddec_sum_bond_order
 _atom_site_hle17_magmom
 _atom_site_hse06_10hf_bader_spin_density
 _atom_site_hse06_10hf_ddec_charge
 _atom_site_hse06_10hf_ddec_spin_density
 _atom_site_hse06_10hf_ddec_sum_bond_order
 _atom_site_hse06_10hf_magmom
 _atom_site_hse06_bader_spin_density
 _atom_site_hse06_ddec_charge
 _atom_site_hse06_ddec_spin_density
 _atom_site_hse06_ddec_sum_bond_order
 _atom_site_hse06_magmom
 _atom_site_pbe_bader_spin_density
 _atom_site_pbe_cm5_charge
 _atom_site_pbe_ddec_charge
 _atom_site_pbe_ddec_spin_density
 _atom_site_pbe_ddec_sum_bond_order
 _atom_site_pbe_magmom
Zn  Zn0  1  0.04554479  0.31731274  0.57388975  1  0  0.820592  0  2.10523  0  0  0.633073  0  2.586352  0  0  0.672721  0  2.542675  0  0  0.627704  0.605944  0  2.616082  0
Zn  Zn1  1  0.45445732  0.18268810  0.07389168  1  0  0.820604  0  2.105595  0  0  0.633111  0  2.586774  0  0  0.672742  0  2.543079  0  0  0.627769  0.605983  0  2.616488  0
Zn  Zn2  1  0.95445648  0.68268648  0.42611021  1  0  0.820644  0  2.105261  0  0  0.633167  0  2.586412  0  0  0.672812  0  2.542722  0  0  0.627745  0.606036  0  2.616131  0
Zn  Zn3  1  0.54554357  0.81730997  0.92610931  1  0  0.820671  0  2.105069  0  0  0.633121  0  2.586232  0  0  0.672759  0  2.542536  0  0  0.627731  0.605989  0  2.615957  0
H  H4  1  0.73526061  0.39470065  0.83375650  1  0  0.092094  0  0.957619  0  0  0.101189  0  1.025203  0  0  0.10366  0  1.021855  0  0  0.121151  0.099251  0  1.027711  0
H  H5  1  0.76474091  0.10529642  0.33375064  1  0  0.092043  0  0.957456  0  0  0.101179  0  1.025011  0  0  0.103616  0  1.0217  0  0  0.121161  0.099242  0  1.027512  0
H  H6  1  0.26473969  0.60530542  0.16624449  1  0  0.092023  0  0.957735  0  0  0.101156  0  1.025257  0  0  0.10359  0  1.021953  0  0  0.12116  0.099223  0  1.027764  0
H  H7  1  0.23525637  0.89470511  0.66625035  1  0  0.092065  0  0.957458  0  0  0.1012  0  1.025016  0  0  0.103638  0  1.021704  0  0  0.121152  0.099265  0  1.027516  0
H  H8  1  0.85540517  0.97956013  0.68839033  1  0  0.08616  0  0.969225  0  0  0.093394  0  1.040083  0  0  0.095678  0  1.036802  0  0  0.121659  0.091606  0  1.042568  0
H  H9  1  0.64458693  0.52042921  0.18839026  1  0  0.086144  0  0.969428  0  0  0.093392  0  1.04024  0  0  0.09568  0  1.036948  0  0  0.121669  0.091602  0  1.04273  0
H  H10  1  0.14459561  0.02044252  0.31161580  1  0  0.086136  0  0.9691  0  0  0.093373  0  1.039963  0  0  0.095656  0  1.036677  0  0  0.121667  0.091582  0  1.042444  0
H  H11  1  0.35542327  0.47957337  0.81160764  1  0  0.086187  0  0.96937  0  0  0.093423  0  1.040196  0  0  0.095712  0  1.036906  0  0  0.121683  0.091634  0  1.04269  0
C  C12  1  0.73333830  0.27416980  0.82074901  1  0  0.237917  0  3.67807  0  0  0.175474  0  3.949075  0  0  0.190442  0  3.960957  0  0  0.14902  0.165785  0  3.940947  0
C  C13  1  0.76666896  0.22583064  0.32075251  1  0  0.238257  0  3.678363  0  0  0.175796  0  3.949354  0  0  0.190792  0  3.961245  0  0  0.149181  0.166093  0  3.941224  0
C  C14  1  0.26667491  0.72582249  0.17923139  1  0  0.238049  0  3.678449  0  0  0.175627  0  3.949374  0  0  0.190619  0  3.96127  0  0  0.149086  0.165921  0  3.941266  0
C  C15  1  0.23333303  0.77417085  0.67924539  1  0  0.237991  0  3.67839  0  0  0.175522  0  3.94938  0  0  0.190514  0  3.961277  0  0  0.149079  0.16583  0  3.941246  0
C  C16  1  0.79758643  0.06391354  0.74902441  1  0  0.225896  0  3.70046  0  0  0.165798  0  3.964407  0  0  0.180383  0  3.977231  0  0  0.14772  0.156304  0  3.955649  0
C  C17  1  0.70240481  0.43608691  0.24902377  1  0  0.225973  0  3.700405  0  0  0.165941  0  3.96435  0  0  0.180536  0  3.977169  0  0  0.147805  0.15644  0  3.9556  0
C  C18  1  0.20240322  0.93606407  0.25098481  1  0  0.226163  0  3.700212  0  0  0.166121  0  3.964169  0  0  0.180721  0  3.97699  0  0  0.147911  0.156631  0  3.955392  0
C  C19  1  0.29759499  0.56390775  0.75097311  1  0  0.225888  0  3.700339  0  0  0.165841  0  3.96425  0  0  0.18043  0  3.977069  0  0  0.147764  0.156343  0  3.955511  0
Br  Br20  1  0.31871264  0.17798315  0.55082783  1  0  -0.530889  0  0.952148  0  0  -0.473332  0  1.245459  0  0  -0.49134  0  1.223202  0  0  -0.290266  -0.46046  0  1.260621  0
Br  Br21  1  0.18128261  0.32202113  0.05085175  1  0  -0.530947  0  0.952112  0  0  -0.473414  0  1.245455  0  0  -0.491418  0  1.223191  0  0  -0.29031  -0.460522  0  1.260613  0
Br  Br22  1  0.68128935  0.82201835  0.44916492  1  0  -0.530928  0  0.952154  0  0  -0.473374  0  1.245459  0  0  -0.49138  0  1.223199  0  0  -0.290298  -0.460498  0  1.260617  0
Br  Br23  1  0.81871092  0.67797357  0.94915747  1  0  -0.530938  0  0.952129  0  0  -0.473385  0  1.245472  0  0  -0.491393  0  1.22321  0  0  -0.290276  -0.460491  0  1.260635  0
N  N24  1  0.62426094  0.16530835  0.90230801  1  0  -0.266546  0  3.242826  0  0  -0.193902  0  3.539978  0  0  -0.210406  0  3.552777  0  0  -0.2597  -0.182997  0  3.531359  0
N  N25  1  0.87572275  0.33467637  0.40229851  1  0  -0.266761  0  3.243105  0  0  -0.194097  0  3.540339  0  0  -0.210603  0  3.55313  0  0  -0.259849  -0.183188  0  3.531723  0
N  N26  1  0.37571035  0.83468080  0.09771459  1  0  -0.266522  0  3.243631  0  0  -0.193892  0  3.540824  0  0  -0.210387  0  3.553618  0  0  -0.259795  -0.182994  0  3.53221  0
N  N27  1  0.12427512  0.66531716  0.59770248  1  0  -0.266659  0  3.24322  0  0  -0.194007  0  3.540405  0  0  -0.210512  0  3.553196  0  0  -0.259816  -0.183105  0  3.531789  0
N  N28  1  0.66541291  0.03005726  0.85590463  1  0  -0.259921  0  3.232835  0  0  -0.18528  0  3.522527  0  0  -0.201573  0  3.53573  0  0  -0.258301  -0.174484  0  3.51361  0
N  N29  1  0.83458993  0.46995354  0.35590952  1  0  -0.259821  0  3.23219  0  0  -0.185337  0  3.522048  0  0  -0.201638  0  3.535252  0  0  -0.25838  -0.174537  0  3.513137  0
N  N30  1  0.33460286  0.96995785  0.14407887  1  0  -0.260151  0  3.231797  0  0  -0.185595  0  3.521588  0  0  -0.201899  0  3.534784  0  0  -0.258487  -0.174786  0  3.512667  0
N  N31  1  0.16541654  0.53005707  0.64409352  1  0  -0.259787  0  3.232699  0  0  -0.185234  0  3.522467  0  0  -0.201532  0  3.535679  0  0  -0.258251  -0.174433  0  3.513552  0
N  N32  1  0.84373811  0.21518082  0.72342131  1  0  -0.405332  0  3.286484  0  0  -0.316414  0  3.579798  0  0  -0.339556  0  3.590645  0  0  -0.358994  -0.300952  0  3.57205  0
N  N33  1  0.65625567  0.28480816  0.22341734  1  0  -0.405475  0  3.286367  0  0  -0.31658  0  3.579728  0  0  -0.339723  0  3.590551  0  0  -0.35905  -0.301123  0  3.572005  0
N  N34  1  0.15626522  0.78482980  0.27657659  1  0  -0.405475  0  3.287024  0  0  -0.31662  0  3.580401  0  0  -0.339764  0  3.591235  0  0  -0.359021  -0.301156  0  3.572655  0
N  N35  1  0.34374427  0.71519678  0.77657850  1  0  -0.405343  0  3.286171  0  0  -0.316436  0  3.57951  0  0  -0.339577  0  3.590338  0  0  -0.359024  -0.300976  0  3.571772  0
