# generated using pymatgen
data_UH4C5N2O7
_symmetry_space_group_name_H-M   'P 1'
_cell_length_a   5.69660945
_cell_length_b   8.94224416
_cell_length_c   9.84222712
_cell_angle_alpha   99.93648231
_cell_angle_beta   97.83612845
_cell_angle_gamma   114.51815122
_symmetry_Int_Tables_number   1
_chemical_formula_structural   UH4C5N2O7
_chemical_formula_sum   'U2 H8 C10 N4 O14'
_cell_volume   437.05346692
_cell_formula_units_Z   2
loop_
 _symmetry_equiv_pos_site_id
 _symmetry_equiv_pos_as_xyz
  1  'x, y, z'
loop_
 _atom_site_type_symbol
 _atom_site_label
 _atom_site_symmetry_multiplicity
 _atom_site_fract_x
 _atom_site_fract_y
 _atom_site_fract_z
 _atom_site_occupancy
 _atom_site_hle17_bader_spin_density
 _atom_site_hle17_ddec_charge
 _atom_site_hle17_ddec_spin_density
 _atom_site_hle17_ddec_sum_bond_order
 _atom_site_hle17_magmom
 _atom_site_hse06_10hf_bader_spin_density
 _atom_site_hse06_10hf_ddec_charge
 _atom_site_hse06_10hf_ddec_spin_density
 _atom_site_hse06_10hf_ddec_sum_bond_order
 _atom_site_hse06_10hf_magmom
 _atom_site_hse06_bader_spin_density
 _atom_site_hse06_ddec_charge
 _atom_site_hse06_ddec_spin_density
 _atom_site_hse06_ddec_sum_bond_order
 _atom_site_hse06_magmom
 _atom_site_pbe_bader_spin_density
 _atom_site_pbe_cm5_charge
 _atom_site_pbe_ddec_charge
 _atom_site_pbe_ddec_spin_density
 _atom_site_pbe_ddec_sum_bond_order
 _atom_site_pbe_magmom
U  U0  1  0.99891349  0.78541674  0.43257897  1  0  2.526464  0  4.100273  0  0  2.606657  0  4.734361  0  0  2.714115  0  4.701345  0  0  2.160089  2.530102  0  4.758525  0
U  U1  1  0.00108561  0.21458088  0.56742181  1  0  2.526647  0  4.100147  0  0  2.606677  0  4.734277  0  0  2.714099  0  4.701311  0  0  2.16012  2.530101  0  4.758483  0
H  H2  1  0.36578979  0.07746442  0.64412216  1  0  0.440501  0  0.849991  0  0  0.425287  0  0.892444  0  0  0.437895  0  0.874106  0  0  0.302972  0.416239  0  0.905589  0
H  H3  1  0.63422116  0.92253797  0.35587448  1  0  0.440543  0  0.849949  0  0  0.425327  0  0.892406  0  0  0.437936  0  0.874064  0  0  0.303015  0.416278  0  0.905547  0
H  H4  1  0.22657585  0.55226150  0.06278758  1  0  0.341779  0  0.889491  0  0  0.319204  0  0.952362  0  0  0.329548  0  0.943669  0  0  0.321221  0.311973  0  0.958387  0
H  H5  1  0.77342740  0.44773999  0.93721438  1  0  0.341654  0  0.889627  0  0  0.319153  0  0.9524  0  0  0.3295  0  0.943699  0  0  0.321209  0.311921  0  0.958427  0
H  H6  1  0.86286497  0.07496275  0.12574165  1  0  0.342619  0  0.814407  0  0  0.329383  0  0.860251  0  0  0.337382  0  0.854789  0  0  0.354852  0.323694  0  0.864292  0
H  H7  1  0.13713315  0.92503615  0.87425831  1  0  0.34265  0  0.814465  0  0  0.329401  0  0.860299  0  0  0.337403  0  0.854834  0  0  0.354866  0.323712  0  0.864341  0
H  H8  1  0.26144846  0.09673480  0.25368690  1  0  0.121864  0  0.927849  0  0  0.129305  0  0.991354  0  0  0.133095  0  0.985441  0  0  0.152414  0.126369  0  0.995798  0
H  H9  1  0.73855310  0.90326681  0.74631291  1  0  0.121878  0  0.927822  0  0  0.129313  0  0.99133  0  0  0.133105  0  0.985414  0  0  0.15243  0.12638  0  0.995771  0
C  C10  1  0.73895240  0.36975547  0.32703599  1  0  0.731679  0  3.86549  0  0  0.691441  0  4.163867  0  0  0.733648  0  4.150263  0  0  0.242874  0.662472  0  4.172154  0
C  C11  1  0.26105099  0.63024337  0.67296743  1  0  0.731596  0  3.865523  0  0  0.691399  0  4.163854  0  0  0.73361  0  4.150245  0  0  0.242842  0.662428  0  4.172153  0
C  C12  1  0.49314635  0.35043823  0.23648262  1  0  -0.313362  0  3.715566  0  0  -0.297978  0  3.96788  0  0  -0.323453  0  3.986048  0  0  -0.024038  -0.281657  0  3.95573  0
C  C13  1  0.50685339  0.64956329  0.76351703  1  0  -0.313179  0  3.715606  0  0  -0.297829  0  3.967899  0  0  -0.323305  0  3.986069  0  0  -0.023985  -0.281517  0  3.955765  0
C  C14  1  0.48029387  0.48726367  0.18231960  1  0  0.633817  0  3.767311  0  0  0.586398  0  4.051328  0  0  0.622021  0  4.047912  0  0  0.2633  0.562597  0  4.052558  0
C  C15  1  0.51970516  0.51273670  0.81767872  1  0  0.633747  0  3.767348  0  0  0.586363  0  4.051325  0  0  0.621985  0  4.047909  0  0  0.263305  0.562562  0  4.052565  0
C  C16  1  0.00821481  0.30440708  0.07262189  1  0  0.746704  0  3.811305  0  0  0.676205  0  4.116378  0  0  0.711695  0  4.111462  0  0  0.358955  0.652365  0  4.11924  0
C  C17  1  0.99176254  0.69558979  0.92737498  1  0  0.746995  0  3.810953  0  0  0.676243  0  4.116354  0  0  0.711737  0  4.111439  0  0  0.359017  0.652402  0  4.119219  0
C  C18  1  0.26523645  0.20189414  0.21039925  1  0  0.257777  0  3.60389  0  0  0.197394  0  3.870269  0  0  0.219746  0  3.876084  0  0  0.101061  0.183172  0  3.865799  0
C  C19  1  0.73476302  0.79810984  0.78960091  1  0  0.257725  0  3.603859  0  0  0.197334  0  3.870202  0  0  0.219686  0  3.876016  0  0  0.10102  0.183115  0  3.86573  0
N  N20  1  0.23844234  0.45211861  0.09981871  1  0  -0.499482  0  3.229275  0  0  -0.433402  0  3.458964  0  0  -0.459597  0  3.459905  0  0  -0.364403  -0.416068  0  3.457983  0
N  N21  1  0.76155655  0.54788156  0.90018159  1  0  -0.499391  0  3.229397  0  0  -0.433293  0  3.459081  0  0  -0.459487  0  3.46003  0  0  -0.364358  -0.415957  0  3.458102  0
N  N22  1  0.03386594  0.17961457  0.13107639  1  0  -0.40563  0  3.307385  0  0  -0.344001  0  3.555599  0  0  -0.367275  0  3.559466  0  0  -0.361561  -0.328576  0  3.552632  0
N  N23  1  0.96613822  0.82038838  0.86892392  1  0  -0.405751  0  3.307439  0  0  -0.343984  0  3.555664  0  0  -0.367265  0  3.559531  0  0  -0.361544  -0.328559  0  3.552699  0
O  O24  1  0.71279283  0.68907421  0.50446042  1  0  -0.688173  0  1.593963  0  0  -0.696148  0  1.881081  0  0  -0.719456  0  1.87239  0  0  -0.741541  -0.681687  0  1.887649  0
O  O25  1  0.28720873  0.31092739  0.49553939  1  0  -0.688216  0  1.593837  0  0  -0.696152  0  1.880968  0  0  -0.71945  0  1.872283  0  0  -0.7415  -0.68168  0  1.887539  0
O  O26  1  0.27630128  0.87382273  0.34800879  1  0  -0.755979  0  1.545979  0  0  -0.763122  0  1.830517  0  0  -0.783907  0  1.812621  0  0  -0.742473  -0.750152  0  1.843639  0
O  O27  1  0.72370876  0.12617536  0.65199295  1  0  -0.756035  0  1.546032  0  0  -0.763103  0  1.830558  0  0  -0.783881  0  1.812667  0  0  -0.742521  -0.750142  0  1.843718  0
O  O28  1  0.95155182  0.50856428  0.34963010  1  0  -0.668497  0  2.047854  0  0  -0.66284  0  2.3239  0  0  -0.698234  0  2.318256  0  0  -0.364708  -0.636868  0  2.326369  0
O  O29  1  0.04845248  0.49143603  0.65037168  1  0  -0.668477  0  2.04789  0  0  -0.662838  0  2.323964  0  0  -0.698231  0  2.318324  0  0  -0.364681  -0.636835  0  2.326389  0
O  O30  1  0.72770963  0.24512889  0.37537015  1  0  -0.642873  0  2.049747  0  0  -0.622417  0  2.315411  0  0  -0.654924  0  2.306957  0  0  -0.345919  -0.598691  0  2.320124  0
O  O31  1  0.27228613  0.75487199  0.62463414  1  0  -0.642865  0  2.049633  0  0  -0.622452  0  2.315321  0  0  -0.65496  0  2.306854  0  0  -0.345922  -0.598726  0  2.320032  0
O  O32  1  0.66662055  0.63436833  0.20324028  1  0  -0.603288  0  1.999392  0  0  -0.585108  0  2.252783  0  0  -0.612383  0  2.245638  0  0  -0.330271  -0.565447  0  2.256432  0
O  O33  1  0.33338051  0.36562956  0.79675867  1  0  -0.603272  0  1.999407  0  0  -0.585119  0  2.252818  0  0  -0.612389  0  2.245673  0  0  -0.330275  -0.565451  0  2.256464  0
O  O34  1  0.79242656  0.28188425  0.00326178  1  0  -0.567527  0  1.90265  0  0  -0.52978  0  2.118592  0  0  -0.550107  0  2.108518  0  0  -0.281862  -0.51558  0  2.12506  0
O  O35  1  0.20757595  0.71812185  0.99674418  1  0  -0.567813  0  1.902329  0  0  -0.529939  0  2.118361  0  0  -0.550271  0  2.108291  0  0  -0.281991  -0.515738  0  2.124827  0
O  O36  1  0.16993260  0.02934773  0.62280159  1  0  -0.998387  0  1.744981  0  0  -1.026461  0  1.999148  0  0  -1.069787  0  1.981235  0  0  -0.700984  -0.99425  0  2.010466  0
O  O37  1  0.83006846  0.97065016  0.37719737  1  0  -0.998442  0  1.744994  0  0  -1.026517  0  1.999167  0  0  -1.069843  0  1.981252  0  0  -0.701025  -0.994302  0  2.010485  0
