# generated using pymatgen
data_FeH8PdC14(IN3)2
_symmetry_space_group_name_H-M   'P 1'
_cell_length_a   6.78847637
_cell_length_b   7.33848357
_cell_length_c   9.56745474
_cell_angle_alpha   112.41061412
_cell_angle_beta   89.49518697
_cell_angle_gamma   89.99980183
_symmetry_Int_Tables_number   1
_chemical_formula_structural   FeH8PdC14(IN3)2
_chemical_formula_sum   'Fe1 H8 Pd1 C14 I2 N6'
_cell_volume   440.60629119
_cell_formula_units_Z   1
loop_
 _symmetry_equiv_pos_site_id
 _symmetry_equiv_pos_as_xyz
  1  'x, y, z'
loop_
 _atom_site_type_symbol
 _atom_site_label
 _atom_site_symmetry_multiplicity
 _atom_site_fract_x
 _atom_site_fract_y
 _atom_site_fract_z
 _atom_site_occupancy
 _atom_site_hle17_bader_spin_density
 _atom_site_hle17_ddec_charge
 _atom_site_hle17_ddec_spin_density
 _atom_site_hle17_ddec_sum_bond_order
 _atom_site_hle17_magmom
 _atom_site_hse06_10hf_bader_spin_density
 _atom_site_hse06_10hf_ddec_charge
 _atom_site_hse06_10hf_ddec_spin_density
 _atom_site_hse06_10hf_ddec_sum_bond_order
 _atom_site_hse06_10hf_magmom
 _atom_site_hse06_bader_spin_density
 _atom_site_hse06_ddec_charge
 _atom_site_hse06_ddec_spin_density
 _atom_site_hse06_ddec_sum_bond_order
 _atom_site_hse06_magmom
 _atom_site_pbe_bader_spin_density
 _atom_site_pbe_cm5_charge
 _atom_site_pbe_ddec_charge
 _atom_site_pbe_ddec_spin_density
 _atom_site_pbe_ddec_sum_bond_order
 _atom_site_pbe_magmom
Fe  Fe0  1  0.49109668  0.50827062  0.01687587  1  0  0.629731  0  3.147277  0  0  0.600712  0  3.637041  0  0  0.648564  0  3.574206  0  0  0.788619  0.575718  0  3.672006  0
H  H1  1  0.33711400  0.33538735  0.67109730  1  0  0.091158  0  0.935818  0  0  0.102192  0  0.996217  0  0  0.103482  0  0.995074  0  0  0.116338  0.101422  0  0.997072  0
H  H2  1  0.66922187  0.66073263  0.32181744  1  0  0.098095  0  0.937282  0  0  0.107653  0  0.999252  0  0  0.109023  0  0.997228  0  0  0.120263  0.106552  0  1.001129  0
H  H3  1  0.81859162  0.17296502  0.34525208  1  0  0.097097  0  0.957131  0  0  0.102651  0  1.030654  0  0  0.105604  0  1.027356  0  0  0.094844  0.100444  0  1.033209  0
H  H4  1  0.18780531  0.82380851  0.64765364  1  0  0.102308  0  0.949187  0  0  0.108344  0  1.020405  0  0  0.111672  0  1.016068  0  0  0.098603  0.105584  0  1.024278  0
H  H5  1  0.04895440  0.28245835  0.56299709  1  0  0.083254  0  0.999557  0  0  0.090413  0  1.067688  0  0  0.093087  0  1.06722  0  0  0.090673  0.088692  0  1.067927  0
H  H6  1  0.95803949  0.71413097  0.42903261  1  0  0.088237  0  0.99242  0  0  0.095331  0  1.059711  0  0  0.097751  0  1.059525  0  0  0.093541  0.093652  0  1.059996  0
H  H7  1  0.90909645  0.41507854  0.82851131  1  0  0.093489  0  0.930884  0  0  0.102815  0  0.990116  0  0  0.102373  0  0.991925  0  0  0.118375  0.103337  0  0.988788  0
H  H8  1  0.09524360  0.58200510  0.16526052  1  0  0.100964  0  0.934582  0  0  0.110234  0  0.992029  0  0  0.110093  0  0.992863  0  0  0.123956  0.110209  0  0.991819  0
Pd  Pd9  1  0.99300945  0.00101559  0.00231394  1  0  0.160857  0  3.560532  0  0  0.14956  0  4.126845  0  0  0.155571  0  4.071877  0  0  0.624623  0.146424  0  4.167596  0
C  C10  1  0.49319490  0.32078335  0.64128501  1  0  0.070515  0  3.742078  0  0  0.032352  0  4.006177  0  0  0.03927  0  4.024738  0  0  0.03775  0.027456  0  3.993342  0
C  C11  1  0.51337422  0.67551586  0.35142435  1  0  0.074526  0  3.681833  0  0  0.031472  0  3.948156  0  0  0.04301  0  3.961781  0  0  0.036256  0.022872  0  3.939853  0
C  C12  1  0.55944823  0.24576593  0.49118064  1  0  -0.03981  0  3.700534  0  0  -0.008045  0  3.955398  0  0  -0.010399  0  3.980371  0  0  -0.052193  -0.006511  0  3.937792  0
C  C13  1  0.44655639  0.75046494  0.50105531  1  0  -0.033676  0  3.694759  0  0  -0.002886  0  3.954985  0  0  -0.005771  0  3.977358  0  0  -0.050736  -0.001219  0  3.940293  0
C  C14  1  0.76200062  0.23098338  0.46112742  1  0  -0.050823  0  3.738702  0  0  -0.073222  0  3.978961  0  0  -0.072049  0  4.000822  0  0  -0.081965  -0.073478  0  3.963456  0
C  C15  1  0.24425145  0.76583902  0.53182071  1  0  -0.048008  0  3.734604  0  0  -0.074188  0  3.98024  0  0  -0.069067  0  3.997378  0  0  -0.082353  -0.078353  0  3.9698  0
C  C16  1  0.89032908  0.29233795  0.58319602  1  0  -0.11944  0  3.781354  0  0  -0.125618  0  4.024015  0  0  -0.133639  0  4.048058  0  0  -0.089132  -0.119934  0  4.007048  0
C  C17  1  0.11664689  0.70448255  0.40953052  1  0  -0.112736  0  3.77919  0  0  -0.121955  0  4.029579  0  0  -0.129997  0  4.050619  0  0  -0.087281  -0.1168  0  4.01617  0
C  C18  1  0.81410558  0.36564511  0.72988494  1  0  0.103818  0  3.720796  0  0  0.073751  0  3.977701  0  0  0.08095  0  3.998477  0  0  0.043516  0.068759  0  3.963016  0
C  C19  1  0.19127028  0.63099737  0.26284157  1  0  0.108037  0  3.67107  0  0  0.074423  0  3.926736  0  0  0.084899  0  3.944283  0  0  0.041924  0.066738  0  3.915547  0
C  C20  1  0.79709893  0.82663587  0.04233105  1  0  0.037055  0  3.465413  0  0  0.019489  0  3.815926  0  0  0.032905  0  3.816361  0  0  -0.028955  0.009915  0  3.816862  0
C  C21  1  0.19020433  0.78920011  0.96758939  1  0  0.03294  0  3.467278  0  0  0.014706  0  3.81843  0  0  0.028594  0  3.817751  0  0  -0.031569  0.005103  0  3.819665  0
C  C22  1  0.19029573  0.17829534  0.96764305  1  0  0.031861  0  3.467787  0  0  0.01366  0  3.818791  0  0  0.027541  0  3.818125  0  0  -0.032222  0.004035  0  3.820055  0
C  C23  1  0.79711273  0.21505766  0.04213978  1  0  0.036972  0  3.465835  0  0  0.019122  0  3.816946  0  0  0.032753  0  3.817054  0  0  -0.029572  0.009562  0  3.817874  0
I  I24  1  0.35583037  0.15674446  0.31428987  1  0  0.07275  0  1.442556  0  0  0.05786  0  1.757064  0  0  0.050128  0  1.753323  0  0  0.136607  0.063451  0  1.759779  0
I  I25  1  0.64840769  0.84002559  0.67962292  1  0  0.073875  0  1.407663  0  0  0.053669  0  1.717955  0  0  0.046506  0  1.71366  0  0  0.133829  0.05784  0  1.72129  0
N  N26  1  0.61948033  0.37848111  0.75622910  1  0  -0.235249  0  3.22618  0  0  -0.189856  0  3.503259  0  0  -0.212954  0  3.522206  0  0  -0.280527  -0.171977  0  3.487632  0
N  N27  1  0.38725665  0.61679233  0.23428251  1  0  -0.208625  0  3.354475  0  0  -0.156673  0  3.628187  0  0  -0.186111  0  3.651184  0  0  -0.306395  -0.13688  0  3.611046  0
N  N28  1  0.68292517  0.71110755  0.05035306  1  0  -0.336682  0  3.300335  0  0  -0.30392  0  3.614202  0  0  -0.322954  0  3.624241  0  0  -0.386972  -0.292398  0  3.606039  0
N  N29  1  0.30451434  0.67096247  0.97033295  1  0  -0.333173  0  3.305478  0  0  -0.300364  0  3.618876  0  0  -0.319208  0  3.6284  0  0  -0.386785  -0.289201  0  3.611272  0
N  N30  1  0.30453653  0.29941204  0.97053124  1  0  -0.333109  0  3.307813  0  0  -0.30039  0  3.621295  0  0  -0.319227  0  3.630812  0  0  -0.386672  -0.289214  0  3.613699  0
N  N31  1  0.68298706  0.33864971  0.05035993  1  0  -0.336209  0  3.297372  0  0  -0.30329  0  3.611055  0  0  -0.322401  0  3.621134  0  0  -0.386386  -0.2918  0  3.60295  0
