# generated using pymatgen
data_CoHCO3
_symmetry_space_group_name_H-M   'P 1'
_cell_length_a   7.37311139
_cell_length_b   7.38617051
_cell_length_c   7.46945413
_cell_angle_alpha   93.28281737
_cell_angle_beta   92.89036337
_cell_angle_gamma   93.13920755
_symmetry_Int_Tables_number   1
_chemical_formula_structural   CoHCO3
_chemical_formula_sum   'Co6 H6 C6 O18'
_cell_volume   404.91678632
_cell_formula_units_Z   6
loop_
 _symmetry_equiv_pos_site_id
 _symmetry_equiv_pos_as_xyz
  1  'x, y, z'
loop_
 _atom_site_type_symbol
 _atom_site_label
 _atom_site_symmetry_multiplicity
 _atom_site_fract_x
 _atom_site_fract_y
 _atom_site_fract_z
 _atom_site_occupancy
 _atom_site_hse06_10hf_bader_charge
 _atom_site_hse06_10hf_bader_spin_density
 _atom_site_hse06_10hf_ddec_charge
 _atom_site_hse06_10hf_ddec_spin_density
 _atom_site_hse06_10hf_ddec_sum_bond_order
 _atom_site_hse06_10hf_magmom
 _atom_site_hse06_ddec_charge
 _atom_site_hse06_ddec_spin_density
 _atom_site_hse06_ddec_sum_bond_order
 _atom_site_hse06_magmom
 _atom_site_pbe_cm5_charge
 _atom_site_pbe_ddec_charge
 _atom_site_pbe_ddec_spin_density
 _atom_site_pbe_ddec_sum_bond_order
 _atom_site_pbe_magmom
Co  Co0  1  0.20343686  0.46376479  0.56885559  1  1.277504  1.155091  0.988934  1.31625  2.8507  1.136  1.029092  1.3503  2.795294  1.061  0.664269  0.967294  1.332613  2.888128  1.172
Co  Co1  1  0.55724412  0.22056905  0.46256979  1  1.374553  0.226692  1.122256  0.265731  2.949478  0.218  1.202996  0.144147  2.88255  0.099  0.697981  1.073771  0.253123  2.9928  0.22
Co  Co2  1  0.46761104  0.55664250  0.22419910  1  1.369982  0.189714  1.119129  0.215383  2.903735  0.182  1.215392  0.116664  2.829773  0.098  0.694051  1.069421  0.256992  2.950219  0.225
Co  Co3  1  0.79647776  0.53635776  0.43114372  1  1.275725  1.154542  0.988662  1.315578  2.849862  1.135  1.027943  1.344822  2.794782  1.057  0.664107  0.967114  1.332133  2.887237  1.171
Co  Co4  1  0.44259175  0.77960029  0.53722441  1  1.374873  0.227645  1.122067  0.266918  2.948922  0.219  1.20262  0.142186  2.882076  0.098  0.697825  1.073618  0.254036  2.992301  0.22
Co  Co5  1  0.53272587  0.44353918  0.77578511  1  1.369521  0.188262  1.119013  0.213462  2.903343  0.18  1.215305  0.106055  2.82925  0.091  0.693839  1.069143  0.2561  2.949813  0.225
H  H6  1  0.94051131  0.90707038  0.65402005  1  0.123008  -0.000772  0.051134  -0.000946  0.966374  0.0  0.048336  -9.1e-05  0.963437  0.0  0.130292  0.052478  -0.000961  0.968909  -0.001
H  H7  1  0.62830035  0.94111560  0.90271115  1  0.157467  -0.001425  0.053978  -0.001376  0.97251  -0.001  0.051977  -0.001023  0.969547  -0.001  0.129534  0.054287  -0.001545  0.975443  -0.001
H  H8  1  0.91788280  0.66354806  0.95474977  1  0.111196  -0.00137  0.048024  -0.001399  0.962659  -0.001  0.044883  -0.000768  0.960625  0.0  0.128402  0.048904  -0.001361  0.965158  -0.001
H  H9  1  0.05924420  0.09221507  0.34704592  1  0.141875  -0.000745  0.051197  -0.000932  0.966387  0.0  0.048406  -8.2e-05  0.963502  0.0  0.130137  0.052537  -0.000948  0.968906  -0.001
H  H10  1  0.37051569  0.05892260  0.09699207  1  0.157558  -0.001425  0.053268  -0.001377  0.973114  -0.001  0.051235  -0.001017  0.970156  -0.001  0.129339  0.053588  -0.001553  0.976031  -0.001
H  H11  1  0.08326978  0.33626051  0.04535261  1  0.109125  -0.001362  0.047824  -0.001394  0.963114  -0.001  0.044707  -0.000764  0.96103  0.0  0.128512  0.048706  -0.00136  0.965633  -0.001
C  C12  1  0.05892959  0.82370067  0.63440824  1  1.557043  0.000387  0.511873  -0.00034  4.113007  0.001  0.550097  -0.000357  4.107999  0.0  0.172891  0.48583  0.00021  4.116364  0.001
C  C13  1  0.61354338  0.05902871  0.81952778  1  1.548485  0.000411  0.527138  -0.00034  4.079341  0.001  0.569017  -0.000337  4.06372  0.0  0.174846  0.49933  0.000535  4.090756  0.001
C  C14  1  0.83621614  0.62406285  0.06796428  1  1.578591  -0.001907  0.509327  -0.002459  4.121141  -0.001  0.548536  -0.001973  4.114881  -0.001  0.171403  0.483434  -0.00202  4.127688  -0.001
C  C15  1  0.94089488  0.17594615  0.36588832  1  1.539993  0.000377  0.512536  -0.000342  4.112797  0.001  0.550689  -0.000367  4.107832  0.0  0.173492  0.486531  0.000199  4.116128  0.001
C  C16  1  0.38569454  0.94104729  0.18011278  1  1.550049  0.000402  0.526913  -0.000351  4.081726  0.001  0.568748  -0.000344  4.066227  0.0  0.174463  0.499183  0.00051  4.093083  0.001
C  C17  1  0.16472783  0.37600827  0.93217052  1  1.582127  -0.001916  0.508907  -0.002465  4.121026  -0.001  0.548183  -0.001988  4.114624  -0.001  0.170833  0.482962  -0.002019  4.127616  -0.001
O  O18  1  0.01904206  0.65292078  0.59743758  1  -1.138887  0.041136  -0.50593  0.022409  2.586166  0.036  -0.542853  0.020568  2.575958  0.03  -0.28978  -0.480373  0.029734  2.592364  0.047
O  O19  1  0.60120686  0.02245014  0.64884781  1  -1.13613  -0.003531  -0.499384  -0.00515  2.454261  -0.004  -0.532511  -0.000721  2.436087  0.0  -0.276853  -0.480334  -0.006841  2.468546  -0.006
O  O20  1  0.67168794  0.56697545  0.02815913  1  -1.145665  -0.00271  -0.488851  -0.00332  2.471688  -0.001  -0.535556  0.001923  2.462069  0.006  -0.264942  -0.465861  -0.006863  2.48375  -0.005
O  O21  1  0.98074134  0.34679735  0.40248110  1  -1.140216  0.041209  -0.506267  0.022454  2.584005  0.036  -0.543203  0.020708  2.573866  0.03  -0.289472  -0.480687  0.029774  2.590136  0.047
O  O22  1  0.39815541  0.97778412  0.35074573  1  -1.139616  -0.003601  -0.499317  -0.005216  2.453494  -0.004  -0.532488  -0.000729  2.435424  0.0  -0.276864  -0.48041  -0.006914  2.467917  -0.006
O  O23  1  0.32923221  0.43323733  0.97187387  1  -1.144179  -0.00268  -0.487299  -0.003277  2.473544  -0.001  -0.534117  0.001994  2.464156  0.006  -0.264187  -0.464205  -0.006823  2.485443  -0.005
O  O24  1  0.08588353  0.36141290  0.77757835  1  -1.116627  -0.008177  -0.44258  -0.009602  2.388904  -0.008  -0.472171  -0.006338  2.381807  -0.005  -0.278437  -0.424715  -0.005499  2.394645  -0.005
O  O25  1  0.78506142  0.09840280  0.34919110  1  -1.126056  0.006859  -0.447325  0.003426  2.301308  0.006  -0.482625  0.008403  2.293762  0.014  -0.263681  -0.424341  0.002774  2.306293  0.006
O  O26  1  0.39066233  0.78655778  0.10245050  1  -1.122441  -0.001752  -0.442244  -0.003808  2.356734  -0.003  -0.472335  -0.001476  2.343533  -0.002  -0.267839  -0.42442  -0.004489  2.365488  -0.004
O  O27  1  0.91461881  0.63878384  0.22275698  1  -1.114407  -0.008231  -0.442252  -0.009648  2.389697  -0.008  -0.47193  -0.006343  2.382765  -0.005  -0.278149  -0.42435  -0.00553  2.395397  -0.005
O  O28  1  0.21470287  0.90133294  0.65095677  1  -1.125185  0.006854  -0.446853  0.003417  2.301267  0.006  -0.482233  0.008384  2.293795  0.014  -0.262991  -0.423879  0.00278  2.306235  0.006
O  O29  1  0.60914590  0.21354058  0.89719670  1  -1.12321  -0.001719  -0.442363  -0.003777  2.357475  -0.003  -0.472511  -0.001375  2.344192  -0.002  -0.268362  -0.424564  -0.004429  2.366254  -0.004
O  O30  1  0.37719163  0.30766688  0.60333817  1  -0.801894  0.023206  -0.72308  0.008924  2.303822  0.021  -0.796211  0.038329  2.29949  0.065  -0.446765  -0.687096  0.0007  2.311657  0.007
O  O31  1  0.51672471  0.33583409  0.27009216  1  -0.710084  0.361175  -0.659898  0.192654  2.128498  0.311  -0.628441  0.319004  2.067739  0.477  -0.431535  -0.658063  0.155441  2.157689  0.251
O  O32  1  0.29845636  0.59911708  0.39991234  1  -0.801484  0.017479  -0.723075  0.004617  2.267126  0.017  -0.797172  0.023459  2.263192  0.044  -0.444111  -0.690184  -0.002454  2.27877  0.005
O  O33  1  0.62274873  0.69254414  0.39647305  1  -0.800361  0.02275  -0.722842  0.008728  2.303832  0.021  -0.795998  0.036011  2.299514  0.061  -0.44684  -0.686909  0.000799  2.311796  0.007
O  O34  1  0.48329437  0.66426973  0.72972425  1  -0.710726  0.36145  -0.65977  0.192828  2.126692  0.312  -0.628899  0.318962  2.066253  0.477  -0.43141  -0.657936  0.155565  2.155871  0.251
O  O35  1  0.70161479  0.40096007  0.60007649  1  -0.801504  0.017682  -0.722848  0.004741  2.266999  0.017  -0.796908  0.024173  2.263185  0.045  -0.444001  -0.689807  -0.002409  2.278318  0.005
