# generated using pymatgen
data_NaH8C2O5
_symmetry_space_group_name_H-M   'P 1'
_cell_length_a   5.39613401
_cell_length_b   6.61497284
_cell_length_c   8.99656720
_cell_angle_alpha   98.05913132
_cell_angle_beta   102.40448197
_cell_angle_gamma   109.53262150
_symmetry_Int_Tables_number   1
_chemical_formula_structural   NaH8C2O5
_chemical_formula_sum   'Na2 H16 C4 O10'
_cell_volume   287.64048806
_cell_formula_units_Z   2
loop_
 _symmetry_equiv_pos_site_id
 _symmetry_equiv_pos_as_xyz
  1  'x, y, z'
loop_
 _atom_site_type_symbol
 _atom_site_label
 _atom_site_symmetry_multiplicity
 _atom_site_fract_x
 _atom_site_fract_y
 _atom_site_fract_z
 _atom_site_occupancy
 _atom_site_hle17_bader_spin_density
 _atom_site_hle17_ddec_charge
 _atom_site_hle17_ddec_spin_density
 _atom_site_hle17_ddec_sum_bond_order
 _atom_site_hle17_magmom
 _atom_site_hse06_10hf_bader_spin_density
 _atom_site_hse06_10hf_ddec_charge
 _atom_site_hse06_10hf_ddec_spin_density
 _atom_site_hse06_10hf_ddec_sum_bond_order
 _atom_site_hse06_10hf_magmom
 _atom_site_hse06_bader_spin_density
 _atom_site_hse06_ddec_charge
 _atom_site_hse06_ddec_spin_density
 _atom_site_hse06_ddec_sum_bond_order
 _atom_site_hse06_magmom
 _atom_site_pbe_bader_spin_density
 _atom_site_pbe_cm5_charge
 _atom_site_pbe_ddec_charge
 _atom_site_pbe_ddec_spin_density
 _atom_site_pbe_ddec_sum_bond_order
 _atom_site_pbe_magmom
Na  Na0  1  0.16389839  0.36310803  0.90262302  1  0  0.894905  0  0.380401  0  0  0.851412  0  0.531794  0  0  0.861348  0  0.509791  0  0  0.649711  0.84397  0  0.54789  0
Na  Na1  1  0.83608994  0.63688092  0.09737272  1  0  0.894906  0  0.380387  0  0  0.851399  0  0.531801  0  0  0.861341  0  0.509791  0  0  0.649713  0.843954  0  0.547897  0
H  H2  1  0.21335616  0.23272089  0.58257668  1  0  0.099006  0  0.954016  0  0  0.109704  0  1.021327  0  0  0.112981  0  1.018753  0  0  0.103102  0.107325  0  1.023208  0
H  H3  1  0.78667549  0.76729622  0.41742511  1  0  0.099042  0  0.954089  0  0  0.109751  0  1.02142  0  0  0.113031  0  1.018852  0  0  0.103138  0.107371  0  1.023301  0
H  H4  1  0.26268772  0.03384412  0.44815733  1  0  0.10679  0  0.937222  0  0  0.118968  0  0.998816  0  0  0.121383  0  0.998253  0  0  0.102787  0.117067  0  0.999606  0
H  H5  1  0.73733225  0.96616823  0.55185696  1  0  0.1068  0  0.937197  0  0  0.118997  0  0.998793  0  0  0.121437  0  0.998203  0  0  0.102795  0.117095  0  0.999584  0
H  H6  1  0.78613589  0.14705131  0.06989556  1  0  0.416922  0  0.889776  0  0  0.386871  0  0.952283  0  0  0.397882  0  0.935934  0  0  0.291989  0.379143  0  0.963713  0
H  H7  1  0.21385355  0.85294417  0.93009761  1  0  0.416939  0  0.889758  0  0  0.3869  0  0.952239  0  0  0.397909  0  0.935893  0  0  0.291987  0.379172  0  0.96367  0
H  H8  1  0.59544035  0.17788167  0.92573770  1  0  0.412642  0  0.893341  0  0  0.386245  0  0.950617  0  0  0.395337  0  0.937274  0  0  0.297262  0.379747  0  0.960224  0
H  H9  1  0.40454304  0.82210890  0.07425867  1  0  0.41273  0  0.893226  0  0  0.38632  0  0.950526  0  0  0.395412  0  0.937182  0  0  0.297282  0.37982  0  0.960134  0
H  H10  1  0.02192158  0.55562141  0.66653365  1  0  0.402511  0  0.910127  0  0  0.370937  0  0.976179  0  0  0.380761  0  0.961823  0  0  0.291225  0.363978  0  0.986337  0
H  H11  1  0.97808996  0.44438086  0.33346858  1  0  0.402428  0  0.910259  0  0  0.370835  0  0.976346  0  0  0.380661  0  0.961987  0  0  0.291187  0.363872  0  0.986511  0
H  H12  1  0.78880988  0.33968129  0.55922909  1  0  0.41523  0  0.89148  0  0  0.382405  0  0.95824  0  0  0.392888  0  0.943141  0  0  0.28657  0.374959  0  0.968923  0
H  H13  1  0.21120693  0.66032418  0.44076635  1  0  0.415155  0  0.891548  0  0  0.382335  0  0.958294  0  0  0.39282  0  0.943194  0  0  0.286581  0.374889  0  0.968977  0
H  H14  1  0.50553909  0.33060547  0.22538349  1  0  0.417575  0  0.883178  0  0  0.38602  0  0.948424  0  0  0.396918  0  0.932046  0  0  0.289857  0.378211  0  0.960173  0
H  H15  1  0.49445382  0.66938519  0.77461523  1  0  0.417627  0  0.883107  0  0  0.386055  0  0.948384  0  0  0.396952  0  0.932007  0  0  0.289861  0.378247  0  0.960131  0
H  H16  1  0.33473303  0.48271149  0.23563076  1  0  0.425468  0  0.876677  0  0  0.399386  0  0.932231  0  0  0.409413  0  0.917606  0  0  0.287192  0.392257  0  0.942621  0
H  H17  1  0.66526101  0.51727749  0.76436572  1  0  0.425457  0  0.876702  0  0  0.399513  0  0.932058  0  0  0.409538  0  0.917438  0  0  0.287226  0.39238  0  0.942456  0
C  C18  1  0.15656045  0.05589361  0.53683784  1  0  -0.255523  0  3.664589  0  0  -0.295  0  3.918414  0  0  -0.300663  0  3.925936  0  0  -0.162766  -0.290853  0  3.912939  0
C  C19  1  0.84344845  0.94411531  0.46317025  1  0  -0.255531  0  3.664565  0  0  -0.295134  0  3.918447  0  0  -0.300824  0  3.925971  0  0  -0.16277  -0.290987  0  3.912972  0
C  C20  1  0.23834857  0.95290935  0.66993316  1  0  0.725428  0  3.804744  0  0  0.675745  0  4.103919  0  0  0.708028  0  4.09699  0  0  0.227198  0.653748  0  4.107996  0
C  C21  1  0.76166104  0.04709286  0.33006548  1  0  0.725525  0  3.804608  0  0  0.675898  0  4.103736  0  0  0.708182  0  4.096809  0  0  0.227204  0.653901  0  4.107812  0
O  O22  1  0.23921618  0.03670570  0.80638722  1  0  -0.690275  0  1.974689  0  0  -0.626618  0  2.193419  0  0  -0.650493  0  2.18058  0  0  -0.354615  -0.610004  0  2.202022  0
O  O23  1  0.76076916  0.96330151  0.19362211  1  0  -0.690223  0  1.975002  0  0  -0.626559  0  2.193742  0  0  -0.650435  0  2.1809  0  0  -0.354542  -0.609948  0  2.202347  0
O  O24  1  0.29113163  0.77932704  0.63711366  1  0  -0.679022  0  2.004326  0  0  -0.60205  0  2.210575  0  0  -0.629048  0  2.199828  0  0  -0.30964  -0.582951  0  2.217613  0
O  O25  1  0.70887533  0.22069003  0.36289162  1  0  -0.679186  0  2.003956  0  0  -0.602226  0  2.210193  0  0  -0.629226  0  2.19944  0  0  -0.309728  -0.583124  0  2.217232  0
O  O26  1  0.78285744  0.24611958  0.99641544  1  0  -0.909856  0  1.777535  0  0  -0.863738  0  1.947781  0  0  -0.880542  0  1.915841  0  0  -0.693211  -0.851835  0  1.970411  0
O  O27  1  0.21711758  0.75387754  0.00358159  1  0  -0.909953  0  1.777362  0  0  -0.863842  0  1.947631  0  0  -0.880638  0  1.915682  0  0  -0.693238  -0.851937  0  1.970264  0
O  O28  1  0.86952408  0.42391551  0.67074501  1  0  -0.855584  0  1.820838  0  0  -0.798437  0  1.984412  0  0  -0.817752  0  1.954162  0  0  -0.614748  -0.784846  0  2.005971  0
O  O29  1  0.13047639  0.57608332  0.32924990  1  0  -0.855477  0  1.820929  0  0  -0.798269  0  1.984536  0  0  -0.817577  0  1.954271  0  0  -0.614746  -0.784681  0  2.006094  0
O  O30  1  0.43640641  0.42795446  0.17004738  1  0  -0.926197  0  1.778129  0  0  -0.881838  0  1.952959  0  0  -0.898439  0  1.919603  0  0  -0.691917  -0.86989  0  1.97647  0
O  O31  1  0.56358156  0.57202957  0.82994895  1  0  -0.92626  0  1.778125  0  0  -0.881987  0  1.952738  0  0  -0.898586  0  1.919378  0  0  -0.69195  -0.870047  0  1.976278  0
