# generated using pymatgen
data_CdH2C4NO5
_symmetry_space_group_name_H-M   'P 1'
_cell_length_a   5.09401403
_cell_length_b   6.75005449
_cell_length_c   8.56927581
_cell_angle_alpha   87.50772556
_cell_angle_beta   75.34680288
_cell_angle_gamma   77.81356039
_symmetry_Int_Tables_number   1
_chemical_formula_structural   CdH2C4NO5
_chemical_formula_sum   'Cd2 H4 C8 N2 O10'
_cell_volume   278.63065519
_cell_formula_units_Z   2
loop_
 _symmetry_equiv_pos_site_id
 _symmetry_equiv_pos_as_xyz
  1  'x, y, z'
loop_
 _atom_site_type_symbol
 _atom_site_label
 _atom_site_symmetry_multiplicity
 _atom_site_fract_x
 _atom_site_fract_y
 _atom_site_fract_z
 _atom_site_occupancy
 _atom_site_pbe_bader_spin_density
 _atom_site_pbe_cm5_charge
 _atom_site_pbe_ddec_charge
 _atom_site_pbe_ddec_spin_density
 _atom_site_pbe_ddec_sum_bond_order
 _atom_site_pbe_magmom
Cd  Cd0  1  0.00000071  0.50000104  0.99999984  1  0  0.799893  0.949199  0  2.091904  0
Cd  Cd1  1  0.50000083  0.99999979  0.49999905  1  0  0.801791  1.140649  0  2.023342  0
H  H2  1  0.77942921  0.62574987  0.65476070  1  0  0.292685  0.395762  0  0.936817  0
H  H3  1  0.22056860  0.37424874  0.34524027  1  0  0.292702  0.395762  0  0.936812  0
H  H4  1  0.00322928  0.72097155  0.52224402  1  0  0.295856  0.392651  0  0.937341  0
H  H5  1  0.99677057  0.27902705  0.47775665  1  0  0.295872  0.392654  0  0.937331  0
C  C6  1  0.94318844  0.11623510  0.19276390  1  0  0.210799  0.548614  0  4.253967  0
C  C7  1  0.05681548  0.88376353  0.80723384  1  0  0.210806  0.548654  0  4.253912  0
C  C8  1  0.24002732  0.05645145  0.09301858  1  0  0.13009  0.062169  0  3.913808  0
C  C9  1  0.75997009  0.94354872  0.90698008  1  0  0.130104  0.062178  0  3.913833  0
C  C10  1  0.40646394  0.86744305  0.11453033  1  0  0.14224  0.086742  0  3.880204  0
C  C11  1  0.59353996  0.13255552  0.88547092  1  0  0.142253  0.086725  0  3.880185  0
C  C12  1  0.31053940  0.71904319  0.24419240  1  0  0.222801  0.584908  0  4.219529  0
C  C13  1  0.68946205  0.28095688  0.75581033  1  0  0.222826  0.584922  0  4.219513  0
N  N14  1  0.66422373  0.81488586  0.01977608  1  0  -0.289257  -0.220919  0  3.45028  0
N  N15  1  0.33577815  0.18511275  0.98022313  1  0  -0.289263  -0.220939  0  3.450273  0
O  O16  1  0.22901180  0.56995848  0.20134467  1  0  -0.303235  -0.540146  0  2.299108  0
O  O17  1  0.77099007  0.43004009  0.79865688  1  0  -0.303272  -0.540173  0  2.299135  0
O  O18  1  0.33332781  0.74674014  0.38496767  1  0  -0.300753  -0.539576  0  2.250319  0
O  O19  1  0.66667160  0.25325994  0.61503537  1  0  -0.300754  -0.539545  0  2.250332  0
O  O20  1  0.79937203  0.28970586  0.17738463  1  0  -0.311661  -0.500742  0  2.283122  0
O  O21  1  0.20062455  0.71029739  0.82261176  1  0  -0.311623  -0.500697  0  2.28317  0
O  O22  1  0.85907972  0.97631607  0.28168308  1  0  -0.305547  -0.538008  0  2.376778  0
O  O23  1  0.14091890  0.02368717  0.71831300  1  0  -0.305601  -0.538105  0  2.37674  0
O  O24  1  0.81022970  0.74783918  0.58928561  1  0  -0.584856  -0.776371  0  2.120156  0
O  O25  1  0.18976972  0.25216094  0.41071509  1  0  -0.584896  -0.776366  0  2.120156  0
