# generated using pymatgen
data_CoH3(CN2)4
_symmetry_space_group_name_H-M   'P 1'
_cell_length_a   5.84221166
_cell_length_b   7.83120823
_cell_length_c   9.01583515
_cell_angle_alpha   87.02690235
_cell_angle_beta   81.99646689
_cell_angle_gamma   68.05441248
_symmetry_Int_Tables_number   1
_chemical_formula_structural   CoH3(CN2)4
_chemical_formula_sum   'Co2 H6 C8 N16'
_cell_volume   378.87268358
_cell_formula_units_Z   2
loop_
 _symmetry_equiv_pos_site_id
 _symmetry_equiv_pos_as_xyz
  1  'x, y, z'
loop_
 _atom_site_type_symbol
 _atom_site_label
 _atom_site_symmetry_multiplicity
 _atom_site_fract_x
 _atom_site_fract_y
 _atom_site_fract_z
 _atom_site_occupancy
 _atom_site_hle17_ddec_charge
 _atom_site_hle17_ddec_spin_density
 _atom_site_hle17_ddec_sum_bond_order
 _atom_site_hle17_magmom
 _atom_site_hse06_10hf_bader_charge
 _atom_site_hse06_10hf_bader_spin_density
 _atom_site_hse06_10hf_ddec_charge
 _atom_site_hse06_10hf_ddec_spin_density
 _atom_site_hse06_10hf_ddec_sum_bond_order
 _atom_site_hse06_10hf_magmom
 _atom_site_hse06_ddec_charge
 _atom_site_hse06_ddec_spin_density
 _atom_site_hse06_ddec_sum_bond_order
 _atom_site_hse06_magmom
 _atom_site_pbe_cm5_charge
 _atom_site_pbe_ddec_charge
 _atom_site_pbe_ddec_spin_density
 _atom_site_pbe_ddec_sum_bond_order
 _atom_site_pbe_magmom
Co  Co0  1  0.19615524  0.60743479  0.00001508  1  0.791158  -2.82099  2.363862  -2.439  1.24323  -2.545247  0.794722  -2.799159  2.782993  -2.524  0.882587  -2.863035  2.700858  -2.629  0.688374  0.718863  -2.736208  2.84952  -2.409
Co  Co1  1  0.80385204  0.39255623  0.99998490  1  0.791254  -2.821041  2.363773  -2.439  1.243182  -2.54524  0.794708  -2.799134  2.782908  -2.524  0.882634  -2.863037  2.700772  -2.629  0.688378  0.718905  -2.736254  2.849442  -2.409
H  H2  1  0.93626739  0.70350022  0.34587924  1  0.091951  -0.001088  0.944335  -0.002  0.158001  -0.001917  0.098087  -0.000774  1.011126  -0.001  0.102033  -0.000563  1.006016  -0.001  0.124861  0.093186  -0.001038  1.017573  -0.001
H  H3  1  0.36018422  0.70318780  0.65396259  1  0.091384  -0.001086  0.943795  -0.002  0.166018  -0.001905  0.097305  -0.000771  1.011107  -0.001  0.101292  -0.000561  1.005946  -0.001  0.1246  0.092385  -0.001037  1.017597  -0.001
H  H4  1  0.06373259  0.29650181  0.65412311  1  0.091969  -0.001089  0.944325  -0.002  0.158  -0.001918  0.098101  -0.000775  1.011116  -0.001  0.102045  -0.000563  1.006008  -0.001  0.124872  0.093202  -0.001038  1.017562  -0.001
H  H5  1  0.63981478  0.29681286  0.34603768  1  0.091408  -0.001085  0.94376  -0.002  0.166026  -0.001905  0.09733  -0.000771  1.011082  -0.001  0.101318  -0.000561  1.00592  -0.001  0.124612  0.092412  -0.001037  1.017572  -0.001
H  H6  1  0.72259858  0.00010893  0.48819694  1  0.12716  -0.000654  0.9663  0.0  0.149592  -0.001765  0.1321  -0.000958  1.033076  -0.001  0.136351  -0.000724  1.031116  -0.001  0.114373  0.128171  -0.001206  1.036078  -0.001
H  H7  1  0.27739975  0.99989310  0.51180221  1  0.127156  -0.000655  0.966302  0.0  0.149603  -0.001765  0.1321  -0.000958  1.033071  -0.001  0.13635  -0.000724  1.031111  -0.001  0.114362  0.128179  -0.001206  1.036065  -0.001
C  C8  1  0.90463636  0.83546423  0.29027410  1  0.18926  0.037952  3.633934  0.025  0.485125  0.00988  0.156203  0.011955  3.890361  0.007  0.172967  0.00833  3.898144  0.005  0.069264  0.140709  0.019042  3.892503  0.011
C  C9  1  0.25992092  0.83520159  0.70959322  1  0.191388  0.037921  3.630659  0.025  0.47473  0.009904  0.158294  0.011979  3.886705  0.007  0.175065  0.008344  3.894467  0.005  0.069648  0.142762  0.019041  3.888886  0.011
C  C10  1  0.09536088  0.16453642  0.70972741  1  0.189201  0.037941  3.633948  0.025  0.485142  0.009883  0.156153  0.011958  3.890329  0.007  0.172918  0.008332  3.898119  0.005  0.069221  0.140674  0.019034  3.892484  0.011
C  C11  1  0.74007879  0.16479769  0.29040593  1  0.191395  0.037922  3.630694  0.025  0.474731  0.009906  0.158274  0.011982  3.886735  0.007  0.175051  0.008342  3.894495  0.005  0.06962  0.142747  0.019038  3.888917  0.011
C  C12  1  0.78394880  0.00012155  0.36881962  1  -0.142122  -0.012873  3.658804  -0.018  0.084527  -0.008299  -0.149821  -0.004638  3.903927  -0.006  -0.15929  -0.004917  3.917479  -0.006  -0.06671  -0.147643  -0.002515  3.903928  -0.005
C  C13  1  0.21604881  0.99988185  0.63118065  1  -0.142078  -0.012868  3.658763  -0.018  0.084511  -0.008302  -0.149788  -0.00464  3.903869  -0.006  -0.159257  -0.004918  3.917422  -0.006  -0.066682  -0.147617  -0.002514  3.903862  -0.005
C  C14  1  0.94735670  0.00004923  0.07767805  1  0.306686  0.050303  3.746938  0.031  1.12494  0.015906  0.292019  0.020156  3.992956  0.01  0.309858  0.013076  4.001689  0.007  0.244368  0.276088  0.032347  3.992363  0.017
C  C15  1  0.05264299  0.99995005  0.92232222  1  0.306613  0.050299  3.746993  0.031  1.076619  0.016079  0.291976  0.020154  3.992977  0.01  0.309813  0.01308  4.001711  0.007  0.244392  0.276059  0.032348  3.992379  0.017
N  N16  1  0.98626663  0.83472736  0.14275967  1  -0.345833  -0.034688  3.24238  -0.062  -1.250824  -0.048822  -0.301502  -0.026826  3.515189  -0.045  -0.325517  -0.022752  3.523647  -0.039  -0.312323  -0.285806  -0.029129  3.51374  -0.048
N  N17  1  0.17888919  0.83457968  0.85712745  1  -0.348725  -0.034695  3.24262  -0.062  -1.258495  -0.048749  -0.30371  -0.026831  3.514654  -0.045  -0.327831  -0.022756  3.523211  -0.039  -0.312993  -0.287964  -0.029155  3.513169  -0.048
N  N18  1  0.01373135  0.16527191  0.85723963  1  -0.345809  -0.03468  3.242433  -0.062  -1.25075  -0.048827  -0.301426  -0.026828  3.515173  -0.045  -0.325456  -0.022753  3.523653  -0.039  -0.312306  -0.285777  -0.029126  3.513773  -0.048
N  N19  1  0.82111228  0.16541960  0.14287046  1  -0.348778  -0.034696  3.24261  -0.062  -1.258523  -0.048751  -0.303699  -0.026832  3.514609  -0.045  -0.327834  -0.022757  3.523179  -0.039  -0.312979  -0.28797  -0.029151  3.513156  -0.048
N  N20  1  0.07183287  0.42923617  0.12574822  1  -0.533635  -0.037958  2.931922  -0.07  -0.34909  -0.042286  -0.572446  -0.027354  3.293195  -0.042  -0.622074  -0.009071  3.305296  -0.019  -0.311496  -0.526443  -0.046343  3.279559  -0.066
N  N21  1  0.49905186  0.42919624  0.87426110  1  -0.534736  -0.037885  2.930871  -0.07  -0.34865  -0.042219  -0.57353  -0.027309  3.292288  -0.042  -0.623073  -0.009051  3.304239  -0.019  -0.312088  -0.527543  -0.046299  3.278649  -0.066
N  N22  1  0.92817646  0.57075759  0.87425260  1  -0.533732  -0.03801  2.931692  -0.07  -0.349184  -0.042328  -0.572556  -0.027381  3.29294  -0.042  -0.622198  -0.009099  3.305048  -0.019  -0.311522  -0.526555  -0.046361  3.27932  -0.066
N  N23  1  0.50094821  0.57079891  0.12573708  1  -0.534812  -0.037909  2.930738  -0.07  -0.348771  -0.04225  -0.57357  -0.027328  3.292117  -0.042  -0.623138  -0.009068  3.304109  -0.019  -0.312105  -0.527593  -0.046304  3.278502  -0.066
N  N24  1  0.12219752  0.36286058  0.24681342  1  0.389551  0.038867  4.148304  0.037  -0.367425  -0.010623  0.435939  0.00396  4.453909  0.002  0.454786  0.010312  4.494011  0.007  0.094085  0.421559  -0.001919  4.418835  -0.002
N  N25  1  0.51500429  0.36279341  0.75323061  1  0.391419  0.038823  4.146324  0.037  -0.355518  -0.010543  0.437641  0.003947  4.451878  0.002  0.45649  0.010287  4.491936  0.007  0.094488  0.423273  -0.001914  4.416828  -0.002
N  N26  1  0.87780118  0.63714420  0.75318448  1  0.389533  0.038829  4.148662  0.037  -0.367604  -0.010643  0.435954  0.003944  4.45421  0.002  0.454798  0.010289  4.494315  0.007  0.094125  0.42158  -0.001933  4.419146  -0.002
N  N27  1  0.48499681  0.63720999  0.24676827  1  0.391466  0.03878  4.146473  0.037  -0.355758  -0.010553  0.437648  0.003939  4.45209  0.002  0.456495  0.010277  4.492147  0.007  0.094455  0.423286  -0.001923  4.417051  -0.002
N  N28  1  0.16828659  0.29571797  0.36286793  1  -0.332056  -0.110962  2.371805  -0.164  0.039503  -0.136699  -0.350347  -0.0687  2.610898  -0.098  -0.3665  -0.058467  2.626814  -0.087  -0.154398  -0.330512  -0.086846  2.594785  -0.12
N  N29  1  0.53600908  0.29561018  0.63718611  1  -0.332881  -0.110943  2.371221  -0.164  0.028449  -0.136706  -0.351018  -0.068681  2.610263  -0.098  -0.367208  -0.058439  2.626181  -0.087  -0.154122  -0.33115  -0.086816  2.594141  -0.12
N  N30  1  0.83170553  0.70428544  0.63714610  1  -0.331913  -0.11089  2.372409  -0.164  0.039817  -0.136634  -0.350206  -0.068667  2.611482  -0.098  -0.366351  -0.058433  2.627395  -0.087  -0.154347  -0.330386  -0.086798  2.595371  -0.12
N  N31  1  0.46399675  0.70439460  0.36280234  1  -0.332839  -0.110892  2.371558  -0.164  0.028844  -0.136662  -0.350937  -0.06866  2.610608  -0.098  -0.367126  -0.058419  2.626526  -0.087  -0.15403  -0.331083  -0.086782  2.594491  -0.12
