# generated using pymatgen
data_AgH3C3(N2O)2
_symmetry_space_group_name_H-M   'P 1'
_cell_length_a   5.25713838
_cell_length_b   7.50773357
_cell_length_c   8.26536741
_cell_angle_alpha   110.26095923
_cell_angle_beta   102.38357482
_cell_angle_gamma   104.05607390
_symmetry_Int_Tables_number   1
_chemical_formula_structural   AgH3C3(N2O)2
_chemical_formula_sum   'Ag2 H6 C6 N8 O4'
_cell_volume   280.44693002
_cell_formula_units_Z   2
loop_
 _symmetry_equiv_pos_site_id
 _symmetry_equiv_pos_as_xyz
  1  'x, y, z'
loop_
 _atom_site_type_symbol
 _atom_site_label
 _atom_site_symmetry_multiplicity
 _atom_site_fract_x
 _atom_site_fract_y
 _atom_site_fract_z
 _atom_site_occupancy
 _atom_site_hle17_bader_spin_density
 _atom_site_hle17_ddec_charge
 _atom_site_hle17_ddec_spin_density
 _atom_site_hle17_ddec_sum_bond_order
 _atom_site_hle17_magmom
 _atom_site_hse06_10hf_bader_spin_density
 _atom_site_hse06_10hf_ddec_charge
 _atom_site_hse06_10hf_ddec_spin_density
 _atom_site_hse06_10hf_ddec_sum_bond_order
 _atom_site_hse06_10hf_magmom
 _atom_site_hse06_bader_spin_density
 _atom_site_hse06_ddec_charge
 _atom_site_hse06_ddec_spin_density
 _atom_site_hse06_ddec_sum_bond_order
 _atom_site_hse06_magmom
 _atom_site_pbe_bader_spin_density
 _atom_site_pbe_cm5_charge
 _atom_site_pbe_ddec_charge
 _atom_site_pbe_ddec_spin_density
 _atom_site_pbe_ddec_sum_bond_order
 _atom_site_pbe_magmom
Ag  Ag0  1  0.60307647  0.82988342  0.96136720  1  0  0.542091  0  1.384592  0  0  0.398501  0  1.864914  0  0  0.435537  0  1.803662  0  0  0.416461  0.372934  0  1.907251  0
Ag  Ag1  1  0.39693062  0.17011824  0.03863216  1  0  0.542091  0  1.384593  0  0  0.398483  0  1.86492  0  0  0.435518  0  1.803671  0  0  0.416447  0.372918  0  1.907256  0
H  H2  1  0.14187939  0.17967119  0.58829491  1  0  0.121957  0  0.935021  0  0  0.133814  0  0.996194  0  0  0.135578  0  0.996189  0  0  0.120424  0.132491  0  0.996294  0
H  H3  1  0.85811976  0.82032594  0.41170326  1  0  0.12193  0  0.935084  0  0  0.133813  0  0.996228  0  0  0.135578  0  0.99622  0  0  0.12044  0.132481  0  0.996332  0
H  H4  1  0.19418552  0.41154761  0.56301090  1  0  0.139941  0  0.92345  0  0  0.144636  0  0.995637  0  0  0.147771  0  0.99337  0  0  0.129572  0.142281  0  0.997454  0
H  H5  1  0.80581441  0.58845103  0.43698906  1  0  0.139961  0  0.923417  0  0  0.144656  0  0.99561  0  0  0.147791  0  0.993341  0  0  0.129581  0.142299  0  0.997421  0
H  H6  1  0.77013279  0.08976123  0.75185391  1  0  0.135041  0  0.961158  0  0  0.139748  0  1.030542  0  0  0.144354  0  1.024799  0  0  0.142202  0.136187  0  1.035013  0
H  H7  1  0.22987608  0.91024348  0.24815390  1  0  0.13505  0  0.961137  0  0  0.139714  0  1.030555  0  0  0.144349  0  1.024781  0  0  0.142214  0.136153  0  1.035031  0
C  C8  1  0.83407666  0.16814197  0.35624682  1  0  0.658961  0  3.933414  0  0  0.602114  0  4.239682  0  0  0.636767  0  4.235724  0  0  0.199193  0.578502  0  4.241368  0
C  C9  1  0.16592153  0.83186121  0.64375439  1  0  0.658937  0  3.933377  0  0  0.602091  0  4.239667  0  0  0.636744  0  4.235708  0  0  0.199201  0.578477  0  4.241352  0
C  C10  1  0.03782731  0.27711692  0.55266176  1  0  -0.175923  0  3.581159  0  0  -0.24215  0  3.819292  0  0  -0.24497  0  3.825612  0  0  -0.048962  -0.23998  0  3.815042  0
C  C11  1  0.96217333  0.72288324  0.44733877  1  0  -0.175888  0  3.581121  0  0  -0.242118  0  3.819228  0  0  -0.244931  0  3.825542  0  0  -0.048951  -0.239938  0  3.814962  0
C  C12  1  0.77301481  0.24028257  0.76781765  1  0  0.135891  0  3.615787  0  0  0.062242  0  3.883889  0  0  0.072206  0  3.89538  0  0  0.166709  0.055856  0  3.876377  0
C  C13  1  0.22698388  0.75971758  0.23218265  1  0  0.136008  0  3.615819  0  0  0.062427  0  3.883906  0  0  0.072373  0  3.895366  0  0  0.166781  0.056035  0  3.876402  0
N  N14  1  0.90099084  0.34324466  0.68576607  1  0  0.070948  0  3.550333  0  0  0.18666  0  3.736866  0  0  0.178447  0  3.756962  0  0  -0.113732  0.191472  0  3.723939  0
N  N15  1  0.09901375  0.65675551  0.31423614  1  0  0.070884  0  3.55035  0  0  0.186567  0  3.736888  0  0  0.178332  0  3.757024  0  0  -0.113827  0.19138  0  3.723955  0
N  N16  1  0.86555733  0.52371318  0.73501968  1  0  -0.065468  0  2.864717  0  0  -0.076543  0  3.137212  0  0  -0.075143  0  3.148659  0  0  -0.055525  -0.077404  0  3.129725  0
N  N17  1  0.13444254  0.47628546  0.26497906  1  0  -0.065422  0  2.864736  0  0  -0.076461  0  3.137198  0  0  -0.075055  0  3.148643  0  0  -0.055494  -0.077326  0  3.129714  0
N  N18  1  0.72266850  0.52977623  0.84613108  1  0  -0.06321  0  3.094588  0  0  -0.027023  0  3.4211  0  0  -0.031819  0  3.431567  0  0  -0.087666  -0.023506  0  3.413958  0
N  N19  1  0.27732936  0.47022240  0.15386621  1  0  -0.063291  0  3.094644  0  0  -0.027112  0  3.421162  0  0  -0.031908  0  3.431626  0  0  -0.087686  -0.023595  0  3.41402  0
N  N20  1  0.66058122  0.35511273  0.86985448  1  0  -0.257502  0  3.024796  0  0  -0.223198  0  3.338992  0  0  -0.236892  0  3.352886  0  0  -0.218819  -0.214072  0  3.329577  0
N  N21  1  0.33941814  0.64488894  0.13014517  1  0  -0.257579  0  3.024871  0  0  -0.223301  0  3.339071  0  0  -0.236994  0  3.352966  0  0  -0.21885  -0.214172  0  3.329657  0
O  O22  1  0.90347720  0.03957954  0.24541459  1  0  -0.6275  0  2.119165  0  0  -0.552339  0  2.400843  0  0  -0.584351  0  2.38871  0  0  -0.322652  -0.530029  0  2.408438  0
O  O23  1  0.09651899  0.96042365  0.75458517  1  0  -0.627475  0  2.119103  0  0  -0.552305  0  2.400769  0  0  -0.584316  0  2.388632  0  0  -0.322618  -0.529996  0  2.40836  0
O  O24  1  0.62183954  0.21822475  0.32450944  1  0  -0.615227  0  2.090875  0  0  -0.546465  0  2.365572  0  0  -0.577491  0  2.355012  0  0  -0.327205  -0.524729  0  2.371852  0
O  O25  1  0.37816014  0.78178147  0.67549413  1  0  -0.615205  0  2.090859  0  0  -0.546452  0  2.365549  0  0  -0.577475  0  2.354985  0  0  -0.327237  -0.524719  0  2.371831  0
