# generated using pymatgen
data_CdH10(C2O3)4
_symmetry_space_group_name_H-M   'P 1'
_cell_length_a   5.14603262
_cell_length_b   7.57441868
_cell_length_c   9.02707064
_cell_angle_alpha   66.03965494
_cell_angle_beta   77.98923856
_cell_angle_gamma   74.29353021
_symmetry_Int_Tables_number   1
_chemical_formula_structural   CdH10(C2O3)4
_chemical_formula_sum   'Cd1 H10 C8 O12'
_cell_volume   307.59936758
_cell_formula_units_Z   1
loop_
 _symmetry_equiv_pos_site_id
 _symmetry_equiv_pos_as_xyz
  1  'x, y, z'
loop_
 _atom_site_type_symbol
 _atom_site_label
 _atom_site_symmetry_multiplicity
 _atom_site_fract_x
 _atom_site_fract_y
 _atom_site_fract_z
 _atom_site_occupancy
 _atom_site_pbe_bader_spin_density
 _atom_site_pbe_cm5_charge
 _atom_site_pbe_ddec_charge
 _atom_site_pbe_ddec_spin_density
 _atom_site_pbe_ddec_sum_bond_order
 _atom_site_pbe_magmom
Cd  Cd0  1  0.49999123  0.50000277  0.99999674  1  0  0.801066  1.136494  0  2.102052  0
H  H1  1  0.50022612  0.49985573  0.49997470  1  0  0.294762  0.331229  0  1.007268  0
H  H2  1  0.50019654  0.99992001  0.50001378  1  0  0.294233  0.331322  0  1.012097  0
H  H3  1  0.41508056  0.10745538  0.13512318  1  0  0.297315  0.386624  0  0.949789  0
H  H4  1  0.58491684  0.89253625  0.86487970  1  0  0.297279  0.386567  0  0.949889  0
H  H5  1  0.31145411  0.19667125  0.96124587  1  0  0.291946  0.37401  0  0.967631  0
H  H6  1  0.68853674  0.80333656  0.03876121  1  0  0.291897  0.373955  0  0.967739  0
H  H7  1  0.02080286  0.73054436  0.85150423  1  0  0.287365  0.393967  0  0.942076  0
H  H8  1  0.97919927  0.26945166  0.14850103  1  0  0.287386  0.393944  0  0.942119  0
H  H9  1  0.24595427  0.67568469  0.71408566  1  0  0.2937  0.383177  0  0.954935  0
H  H10  1  0.75403115  0.32432774  0.28589725  1  0  0.293711  0.383047  0  0.955095  0
C  C11  1  0.09015701  0.67659409  0.28993989  1  0  0.108978  0.191594  0  4.179179  0
C  C12  1  0.90982295  0.32342406  0.71006612  1  0  0.108854  0.191412  0  4.179503  0
C  C13  1  0.12859068  0.69806450  0.43783608  1  0  0.104338  0.147248  0  4.065728  0
C  C14  1  0.87138347  0.30196077  0.56220148  1  0  0.104109  0.147014  0  4.064859  0
C  C15  1  0.86531961  0.83066802  0.43740478  1  0  0.114111  0.174414  0  4.071828  0
C  C16  1  0.13463061  0.16934902  0.56256199  1  0  0.114068  0.174184  0  4.072774  0
C  C17  1  0.82253802  0.81613051  0.28579555  1  0  0.118734  0.186531  0  4.094949  0
C  C18  1  0.17744795  0.18388032  0.71420335  1  0  0.118851  0.1868  0  4.09433  0
O  O19  1  0.21604579  0.57332643  0.20962837  1  0  -0.314539  -0.450838  0  2.396952  0
O  O20  1  0.78394633  0.42668420  0.79039311  1  0  -0.314568  -0.450898  0  2.396737  0
O  O21  1  0.31397479  0.62041264  0.53549923  1  0  -0.283019  -0.382972  0  2.448984  0
O  O22  1  0.68592275  0.37965116  0.46452460  1  0  -0.283198  -0.382468  0  2.45016  0
O  O23  1  0.72815936  0.91376655  0.53483408  1  0  -0.288228  -0.358223  0  2.385477  0
O  O24  1  0.27169619  0.08628301  0.46513757  1  0  -0.287938  -0.358315  0  2.384652  0
O  O25  1  0.63858255  0.88183606  0.19392838  1  0  -0.274965  -0.403571  0  2.336238  0
O  O26  1  0.36140572  0.11817341  0.80605629  1  0  -0.274755  -0.403334  0  2.336318  0
O  O27  1  0.30217970  0.22775029  0.06086870  1  0  -0.561344  -0.760566  0  2.167117  0
O  O28  1  0.69780968  0.77224868  0.93913931  1  0  -0.561249  -0.76042  0  2.16716  0
O  O29  1  0.21888250  0.70973252  0.81190985  1  0  -0.58948  -0.781069  0  2.117665  0
O  O30  1  0.78111393  0.29026946  0.18808855  1  0  -0.589418  -0.780861  0  2.117853  0
