# generated using pymatgen
data_CoH8C4(ClO)2
_symmetry_space_group_name_H-M   'P 1'
_cell_length_a   6.43165506
_cell_length_b   8.04059876
_cell_length_c   8.02113922
_cell_angle_alpha   118.29412772
_cell_angle_beta   96.37325792
_cell_angle_gamma   96.60786991
_symmetry_Int_Tables_number   1
_chemical_formula_structural   CoH8C4(ClO)2
_chemical_formula_sum   'Co2 H16 C8 Cl4 O4'
_cell_volume   356.26492637
_cell_formula_units_Z   2
loop_
 _symmetry_equiv_pos_site_id
 _symmetry_equiv_pos_as_xyz
  1  'x, y, z'
loop_
 _atom_site_type_symbol
 _atom_site_label
 _atom_site_symmetry_multiplicity
 _atom_site_fract_x
 _atom_site_fract_y
 _atom_site_fract_z
 _atom_site_occupancy
 _atom_site_pbe_cm5_charge
 _atom_site_pbe_ddec_charge
 _atom_site_pbe_ddec_spin_density
 _atom_site_pbe_ddec_sum_bond_order
 _atom_site_pbe_magmom
Co  Co0  1  0.75669426  0.05489393  0.95321276  1  0.457127  0.754754  2.752552  2.554786  2.518
Co  Co1  1  0.25533313  0.95340598  0.05497435  1  0.456797  0.754415  2.751887  2.555454  2.519
H  H2  1  0.95875997  0.20115828  0.70262164  1  0.107061  0.095805  0.000499  1.001811  0.001
H  H3  1  0.53758204  0.29481073  0.79743606  1  0.106011  0.094776  0.000644  0.998209  0.001
H  H4  1  0.03761015  0.79571293  0.29619420  1  0.106215  0.095371  0.000649  0.997243  0.001
H  H5  1  0.45915638  0.70425291  0.19968073  1  0.106291  0.09486  0.000494  1.002591  0.001
H  H6  1  0.19066828  0.32166707  0.89149028  1  0.096702  0.076906  0.000361  1.026878  0.001
H  H7  1  0.30956518  0.10285895  0.67684824  1  0.095469  0.074887  -1.6e-05  1.027988  0.0
H  H8  1  0.80831719  0.67339693  0.10561508  1  0.096566  0.075826  -1.4e-05  1.025606  0.0
H  H9  1  0.68948518  0.89454472  0.31872801  1  0.095748  0.076464  0.000348  1.02984  0.001
H  H10  1  0.14147994  0.47818617  0.21842259  1  0.097802  0.082948  0.000676  0.996701  0.001
H  H11  1  0.36257752  0.78168781  0.52030424  1  0.096389  0.078951  0.000316  0.995602  0.0
H  H12  1  0.85798582  0.51997302  0.78281096  1  0.096402  0.079056  0.000315  0.996396  0.0
H  H13  1  0.63672071  0.22000364  0.47805320  1  0.09733  0.082373  0.000664  0.995389  0.001
H  H14  1  0.87425894  0.47511205  0.26199183  1  0.102669  0.100505  0.000955  0.989948  0.001
H  H15  1  0.62957089  0.73981088  0.51973059  1  0.10303  0.099782  0.000972  0.984072  0.001
H  H16  1  0.12430407  0.52174166  0.73767011  1  0.103985  0.101338  0.000968  0.983896  0.001
H  H17  1  0.36846380  0.25985201  0.47742764  1  0.102715  0.10063  0.000972  0.990454  0.001
C  C18  1  0.97871900  0.48643385  0.16733644  1  -0.080938  -0.019672  0.003424  3.865552  0.004
C  C19  1  0.52422104  0.83406934  0.51020766  1  -0.079644  -0.012946  0.003533  3.87225  0.004
C  C20  1  0.02076549  0.51109428  0.83328893  1  -0.080667  -0.016932  0.003531  3.87316  0.004
C  C21  1  0.47518792  0.16690689  0.48760127  1  -0.080895  -0.017518  0.003446  3.862536  0.004
C  C22  1  0.02681496  0.32848394  0.84262475  1  -0.081631  -0.02138  0.002586  3.858688  0.003
C  C23  1  0.47230835  0.15465333  0.66925494  1  -0.083224  -0.022842  0.002976  3.876871  0.004
C  C24  1  0.97217199  0.66779140  0.15590217  1  -0.082405  -0.020831  0.003011  3.873874  0.004
C  C25  1  0.52678044  0.84412747  0.32728268  1  -0.082447  -0.02377  0.002577  3.863934  0.003
Cl  Cl26  1  0.51694944  0.77681834  0.88805320  1  -0.241163  -0.466447  0.094461  1.500606  0.129
Cl  Cl27  1  0.98312467  0.11679327  0.23537470  1  -0.245259  -0.477924  0.088455  1.476731  0.124
Cl  Cl28  1  0.48387450  0.23461934  0.11756317  1  -0.246009  -0.478262  0.08879  1.472061  0.124
Cl  Cl29  1  0.01765822  0.88857089  0.77580571  1  -0.24022  -0.46581  0.09436  1.504462  0.129
O  O30  1  0.89949185  0.32052609  0.97791814  1  -0.225529  -0.215968  0.027828  2.658141  0.044
O  O31  1  0.60472182  0.02308210  0.67475346  1  -0.224532  -0.221396  0.019999  2.64051  0.031
O  O32  1  0.10196120  0.67527406  0.02267321  1  -0.224787  -0.222353  0.019846  2.638271  0.031
O  O33  1  0.39670712  0.97768888  0.32113953  1  -0.22496  -0.215599  0.027935  2.655852  0.044
