# generated using pymatgen
data_MnH3C2O3
_symmetry_space_group_name_H-M   'P 1'
_cell_length_a   5.89777389
_cell_length_b   7.41115431
_cell_length_c   7.94644846
_cell_angle_alpha   90.00052570
_cell_angle_beta   92.07611364
_cell_angle_gamma   90.00061250
_symmetry_Int_Tables_number   1
_chemical_formula_structural   MnH3C2O3
_chemical_formula_sum   'Mn4 H12 C8 O12'
_cell_volume   347.10580233
_cell_formula_units_Z   4
loop_
 _symmetry_equiv_pos_site_id
 _symmetry_equiv_pos_as_xyz
  1  'x, y, z'
loop_
 _atom_site_type_symbol
 _atom_site_label
 _atom_site_symmetry_multiplicity
 _atom_site_fract_x
 _atom_site_fract_y
 _atom_site_fract_z
 _atom_site_occupancy
 _atom_site_pbe_cm5_charge
 _atom_site_pbe_ddec_charge
 _atom_site_pbe_ddec_spin_density
 _atom_site_pbe_ddec_sum_bond_order
 _atom_site_pbe_magmom
Mn  Mn0  1  0.24229763  0.10153950  0.47253959  1  0.580608  1.073155  4.683833  2.242155  4.505
Mn  Mn1  1  0.25769748  0.60153887  0.52745775  1  0.580673  1.073205  4.68388  2.242045  4.505
Mn  Mn2  1  0.75769844  0.89846235  0.52745788  1  0.580617  1.073114  4.683843  2.242284  4.505
Mn  Mn3  1  0.74230366  0.39846298  0.47254490  1  0.580676  1.073263  4.683888  2.241961  4.505
H  H4  1  0.92729311  0.18787283  0.69311022  1  0.300748  0.371202  0.004906  0.943775  0.007
H  H5  1  0.57270778  0.68787385  0.30688821  1  0.300743  0.371187  0.004906  0.943768  0.007
H  H6  1  0.07270804  0.81212767  0.30688991  1  0.300739  0.371174  0.004906  0.943751  0.007
H  H7  1  0.42729167  0.31212665  0.69311314  1  0.300726  0.371179  0.004906  0.943811  0.007
H  H8  1  0.07141179  0.31228015  0.93600179  1  0.099871  0.110475  0.000438  0.992311  0.001
H  H9  1  0.42858455  0.81228451  0.06399487  1  0.099839  0.110432  0.000438  0.992364  0.001
H  H10  1  0.92858087  0.68771495  0.06400061  1  0.099881  0.110522  0.000438  0.992305  0.001
H  H11  1  0.57141999  0.18772139  0.93600662  1  0.099807  0.110432  0.000438  0.992335  0.001
H  H12  1  0.25923412  0.48778157  0.99597609  1  0.104396  0.123979  0.001238  0.992374  0.002
H  H13  1  0.24076806  0.98778374  0.00401972  1  0.104397  0.123997  0.001237  0.992376  0.002
H  H14  1  0.74075688  0.51221488  0.00401746  1  0.104396  0.124002  0.001238  0.992315  0.002
H  H15  1  0.75924159  0.01221811  0.99597689  1  0.104467  0.124095  0.001237  0.992226  0.002
C  C16  1  0.09135833  0.42931013  0.01980107  1  -0.161961  -0.275857  0.003658  3.922423  0.003
C  C17  1  0.40864132  0.92931524  0.98019920  1  -0.161962  -0.275897  0.003659  3.922523  0.003
C  C18  1  0.90863944  0.57068902  0.98019645  1  -0.161959  -0.275995  0.003657  3.922379  0.003
C  C19  1  0.59135812  0.07068391  0.01980466  1  -0.162027  -0.276125  0.003659  3.922542  0.003
C  C20  1  0.09550983  0.36365999  0.19987427  1  0.23183  0.657102  0.037725  4.094743  0.033
C  C21  1  0.40447872  0.86363226  0.80012890  1  0.231988  0.657312  0.037711  4.095131  0.033
C  C22  1  0.90449303  0.63634456  0.80012340  1  0.231912  0.657177  0.037722  4.094656  0.033
C  C23  1  0.59552412  0.13636419  0.19987380  1  0.231953  0.657294  0.037705  4.095303  0.033
O  O24  1  0.91061651  0.15899948  0.57374679  1  -0.550346  -0.879163  0.145939  2.176466  0.088
O  O25  1  0.58938568  0.65899912  0.42625143  1  -0.550333  -0.879112  0.145945  2.176495  0.088
O  O26  1  0.08938634  0.84100237  0.42625339  1  -0.55034  -0.879125  0.14594  2.176456  0.088
O  O27  1  0.41061716  0.34099869  0.57375001  1  -0.550311  -0.879153  0.145948  2.176586  0.088
O  O28  1  0.13829975  0.19844448  0.22749601  1  -0.298398  -0.557021  0.053576  2.302646  0.038
O  O29  1  0.36170518  0.69846064  0.77250371  1  -0.298457  -0.557059  0.053569  2.303747  0.038
O  O30  1  0.86170140  0.80156007  0.77250413  1  -0.298381  -0.557009  0.053576  2.302593  0.038
O  O31  1  0.63829765  0.30153177  0.22750025  1  -0.298464  -0.557062  0.05357  2.303973  0.038
O  O32  1  0.05763465  0.47893395  0.31712453  1  -0.306794  -0.623892  0.068662  2.399601  0.032
O  O33  1  0.44237081  0.97892832  0.68286626  1  -0.306845  -0.623957  0.068666  2.399148  0.032
O  O34  1  0.94236481  0.52107465  0.68287430  1  -0.306887  -0.623947  0.068665  2.399702  0.032
O  O35  1  0.55763375  0.02106003  0.31713020  1  -0.3068  -0.623926  0.068669  2.399111  0.032
