# generated using pymatgen
data_CoH8C6(N2O)4
_symmetry_space_group_name_H-M   'P 1'
_cell_length_a   5.42152164
_cell_length_b   7.77487138
_cell_length_c   7.76809849
_cell_angle_alpha   120.09548102
_cell_angle_beta   101.26070574
_cell_angle_gamma   96.87707751
_symmetry_Int_Tables_number   1
_chemical_formula_structural   CoH8C6(N2O)4
_chemical_formula_sum   'Co1 H8 C6 N8 O4'
_cell_volume   268.54643092
_cell_formula_units_Z   1
loop_
 _symmetry_equiv_pos_site_id
 _symmetry_equiv_pos_as_xyz
  1  'x, y, z'
loop_
 _atom_site_type_symbol
 _atom_site_label
 _atom_site_symmetry_multiplicity
 _atom_site_fract_x
 _atom_site_fract_y
 _atom_site_fract_z
 _atom_site_occupancy
 _atom_site_hle17_ddec_charge
 _atom_site_hle17_ddec_spin_density
 _atom_site_hle17_ddec_sum_bond_order
 _atom_site_hle17_magmom
 _atom_site_hse06_10hf_ddec_charge
 _atom_site_hse06_10hf_ddec_spin_density
 _atom_site_hse06_10hf_ddec_sum_bond_order
 _atom_site_hse06_10hf_magmom
 _atom_site_hse06_ddec_charge
 _atom_site_hse06_ddec_spin_density
 _atom_site_hse06_ddec_sum_bond_order
 _atom_site_hse06_magmom
 _atom_site_pbe_cm5_charge
 _atom_site_pbe_ddec_charge
 _atom_site_pbe_ddec_spin_density
 _atom_site_pbe_ddec_sum_bond_order
 _atom_site_pbe_magmom
Co  Co0  1  0.00000438  0.00000061  0.99999895  1  0.682149  1.071874  2.490114  1.0  0.670443  1.013141  2.920509  0.957  0.745252  1.014728  2.842056  0.963  0.635272  0.628577  1.010965  2.969033  0.948
H  H1  1  0.57477941  0.29765269  0.72443947  1  0.11837  -8.5e-05  0.943875  0.0  0.119901  -4.6e-05  1.020574  0.0  0.124003  -5.9e-05  1.015113  0.0  0.1387  0.116727  -2e-05  1.02451  0.0
H  H2  1  0.42520558  0.70233970  0.27555646  1  0.118382  -8.7e-05  0.943512  0.0  0.119917  -4.6e-05  1.02026  0.0  0.124014  -5.9e-05  1.014803  0.0  0.138706  0.116742  -2e-05  1.024197  0.0
H  H3  1  0.79033083  0.19404995  0.40193017  1  0.113206  -0.000119  0.989154  0.001  0.112247  -0.00029  1.069237  0.0  0.116564  -0.000176  1.063177  0.0  0.13886  0.10884  -0.000406  1.073827  0.0
H  H4  1  0.20968336  0.80596036  0.59807363  1  0.113172  -0.000119  0.988882  0.001  0.112218  -0.00029  1.068993  0.0  0.116532  -0.000176  1.062936  0.0  0.138826  0.108807  -0.000406  1.073585  0.0
H  H5  1  0.16633496  0.31578184  0.89720579  1  0.29457  -0.000126  0.947938  0.0  0.280636  -0.000161  1.018856  0.0  0.287953  -0.000182  1.01142  0.0  0.295723  0.275423  -0.000159  1.0239  0.0
H  H6  1  0.83367716  0.68422090  0.10279919  1  0.294501  -0.000125  0.94813  0.0  0.28062  -0.000161  1.018966  0.0  0.287939  -0.000183  1.011526  0.0  0.295727  0.275406  -0.000159  1.024011  0.0
H  H7  1  0.15927998  0.52602693  0.88383223  1  0.292655  5e-05  0.954492  0.0  0.278836  2.8e-05  1.024826  0.0  0.286385  -3.4e-05  1.016646  0.0  0.289883  0.273607  9.4e-05  1.030015  0.0
H  H8  1  0.84072423  0.47398147  0.11617173  1  0.292653  5e-05  0.954433  0.0  0.278825  2.8e-05  1.024802  0.0  0.286375  -3.4e-05  1.016612  0.0  0.289904  0.273597  9.4e-05  1.029986  0.0
C  C9  1  0.48760000  0.89293057  0.98405992  1  0.517166  -0.011274  3.896908  -0.007  0.469349  -0.003626  4.214106  -0.002  0.502609  -0.001771  4.207249  0.0  0.209855  0.44502  -0.005801  4.219526  -0.003
C  C10  1  0.51240883  0.10707340  0.01593873  1  0.517078  -0.011276  3.897111  -0.007  0.469278  -0.003626  4.214283  -0.002  0.502537  -0.001771  4.207416  0.0  0.209771  0.44495  -0.005802  4.21971  -0.003
C  C11  1  0.39965259  0.25262813  0.59984270  1  0.118955  -0.000263  3.634644  0.0  0.050509  -0.000649  3.906353  0.0  0.069533  -0.000485  3.920685  0.0  0.153199  0.042918  -0.00075  3.90015  0.0
C  C12  1  0.60036579  0.74738582  0.40018280  1  0.118809  -0.000267  3.635252  0.0  0.050394  -0.000649  3.906966  0.0  0.069446  -0.000483  3.921343  0.0  0.153116  0.042805  -0.00075  3.900757  0.0
C  C13  1  0.99629404  0.19853799  0.43239613  1  0.130918  -0.016209  3.586039  -0.011  0.059105  -0.006958  3.851427  -0.004  0.082119  -0.005221  3.865619  -0.003  0.154699  0.048638  -0.008407  3.846067  -0.005
C  C14  1  0.00367127  0.80146558  0.56759970  1  0.131063  -0.016181  3.586658  -0.011  0.059289  -0.006949  3.852091  -0.004  0.082337  -0.005217  3.866304  -0.003  0.154897  0.048825  -0.008397  3.846726  -0.005
N  N15  1  0.12924740  0.12833554  0.29542792  1  -0.187274  -0.012174  3.343944  -0.006  -0.155897  -0.008868  3.66127  -0.006  -0.178927  -0.008174  3.674706  -0.006  -0.258913  -0.143219  -0.007857  3.652452  -0.005
N  N16  1  0.87075229  0.87166188  0.70456363  1  -0.187319  -0.012178  3.344435  -0.006  -0.155996  -0.008869  3.661807  -0.006  -0.179024  -0.008171  3.675223  -0.006  -0.258967  -0.143314  -0.007855  3.652984  -0.005
N  N17  1  0.38384530  0.16155017  0.40032088  1  -0.236061  -0.006585  2.970734  -0.006  -0.210927  -0.003666  3.259509  -0.003  -0.219707  -0.002777  3.274245  -0.002  -0.222959  -0.204563  -0.004457  3.248749  -0.003
N  N18  1  0.61614658  0.83843945  0.59967217  1  -0.23604  -0.006575  2.97137  -0.005  -0.210873  -0.003663  3.260136  -0.003  -0.219649  -0.002775  3.274856  -0.002  -0.223008  -0.204506  -0.004452  3.249373  -0.003
N  N19  1  0.16087018  0.27765133  0.62560742  1  0.077974  -0.000506  3.61016  0.0  0.191907  -0.000817  3.802014  0.0  0.156407  -0.000584  3.857552  0.0  -0.146306  0.197962  -0.000989  3.789522  -0.001
N  N20  1  0.83913755  0.72234989  0.37440519  1  0.077931  -0.000506  3.610436  0.0  0.191744  -0.000816  3.802422  0.0  0.156137  -0.000577  3.85812  0.0  -0.146337  0.197804  -0.000988  3.789926  -0.001
N  N21  1  0.08467193  0.36886628  0.80778857  1  -0.530326  -0.000212  2.876956  0.0  -0.545197  -4.3e-05  3.110681  0.0  -0.546977  -8.7e-05  3.114057  0.0  -0.505917  -0.537982  2.9e-05  3.113702  0.0
N  N22  1  0.91532967  0.63113888  0.19220957  1  -0.530153  -0.000211  2.876916  0.0  -0.545029  -4.3e-05  3.110643  0.0  -0.546776  -8.9e-05  3.114041  0.0  -0.505852  -0.537813  2.9e-05  3.113663  0.0
O  O23  1  0.26665771  0.79245363  0.95411555  1  -0.531919  0.020515  2.102813  0.037  -0.4955  0.021411  2.352596  0.037  -0.524478  0.018145  2.342138  0.031  -0.275432  -0.474147  0.02453  2.358788  0.041
O  O24  1  0.73333224  0.20753593  0.04587847  1  -0.531797  0.0205  2.10329  0.037  -0.495336  0.021402  2.353003  0.037  -0.524317  0.018138  2.342572  0.031  -0.275321  -0.473991  0.024518  2.359202  0.041
O  O25  1  0.30377687  0.16833504  0.00960255  1  -0.519379  -0.008952  2.212432  -0.006  -0.490285  -0.002886  2.486248  -0.002  -0.528209  -0.005962  2.477379  -0.005  -0.289098  -0.46361  -0.001291  2.491006  0.0
O  O26  1  0.69620283  0.83165860  0.99039191  1  -0.519284  -0.00896  2.212506  -0.006  -0.490175  -0.002888  2.486324  -0.002  -0.528078  -0.005963  2.477421  -0.005  -0.289028  -0.463504  -0.001294  2.491079  0.0
