# generated using pymatgen
data_GdH8C3N9O5
_symmetry_space_group_name_H-M   'P 1'
_cell_length_a   6.55562883
_cell_length_b   6.55541243
_cell_length_c   7.39566297
_cell_angle_alpha   99.05851323
_cell_angle_beta   99.06136873
_cell_angle_gamma   119.18530690
_symmetry_Int_Tables_number   1
_chemical_formula_structural   GdH8C3N9O5
_chemical_formula_sum   'Gd1 H8 C3 N9 O5'
_cell_volume   263.70804045
_cell_formula_units_Z   1
loop_
 _symmetry_equiv_pos_site_id
 _symmetry_equiv_pos_as_xyz
  1  'x, y, z'
loop_
 _atom_site_type_symbol
 _atom_site_label
 _atom_site_symmetry_multiplicity
 _atom_site_fract_x
 _atom_site_fract_y
 _atom_site_fract_z
 _atom_site_occupancy
 _atom_site_hle17_bader_spin_density
 _atom_site_hle17_ddec_charge
 _atom_site_hle17_ddec_spin_density
 _atom_site_hle17_ddec_sum_bond_order
 _atom_site_hle17_magmom
 _atom_site_hse06_10hf_bader_spin_density
 _atom_site_hse06_10hf_ddec_charge
 _atom_site_hse06_10hf_ddec_spin_density
 _atom_site_hse06_10hf_ddec_sum_bond_order
 _atom_site_hse06_10hf_magmom
 _atom_site_hse06_bader_spin_density
 _atom_site_hse06_ddec_charge
 _atom_site_hse06_ddec_spin_density
 _atom_site_hse06_ddec_sum_bond_order
 _atom_site_hse06_magmom
 _atom_site_pbe_bader_spin_density
 _atom_site_pbe_cm5_charge
 _atom_site_pbe_ddec_charge
 _atom_site_pbe_ddec_spin_density
 _atom_site_pbe_ddec_sum_bond_order
 _atom_site_pbe_magmom
Gd  Gd0  1  0.90889566  0.90889318  0.78314226  1  0  2.144914  0  1.816627  0  0  2.01687  0  2.230611  0  0  2.075679  0  2.16232  0  0  1.482458  1.970264  0  2.285396  0
H  H1  1  0.74404370  0.60412993  0.35526381  1  0  0.40847  0  0.898897  0  0  0.366243  0  0.981618  0  0  0.378194  0  0.964333  0  0  0.295952  0.357788  0  0.993791  0
H  H2  1  0.60413041  0.74403334  0.35526478  1  0  0.408508  0  0.898828  0  0  0.366278  0  0.981559  0  0  0.378226  0  0.964279  0  0  0.295982  0.357826  0  0.993725  0
H  H3  1  0.65165282  0.15254402  0.80350867  1  0  0.415663  0  0.892466  0  0  0.375803  0  0.97236  0  0  0.387234  0  0.955627  0  0  0.305981  0.367699  0  0.984162  0
H  H4  1  0.00792926  0.52598060  0.57281210  1  0  0.419535  0  0.891541  0  0  0.376811  0  0.973541  0  0  0.388942  0  0.956453  0  0  0.291908  0.368248  0  0.985574  0
H  H5  1  0.52599378  0.00793474  0.57280670  1  0  0.419466  0  0.891625  0  0  0.37669  0  0.973701  0  0  0.388824  0  0.956609  0  0  0.291816  0.368124  0  0.985735  0
H  H6  1  0.15254001  0.65163776  0.80351439  1  0  0.41567  0  0.892496  0  0  0.375813  0  0.972361  0  0  0.387242  0  0.95563  0  0  0.305992  0.36771  0  0.984163  0
H  H7  1  0.14299641  0.14297295  0.48567799  1  0  0.295335  0  0.957201  0  0  0.273963  0  1.02816  0  0  0.281808  0  1.021641  0  0  0.318677  0.268477  0  1.032587  0
H  H8  1  0.44754317  0.44765784  0.59435726  1  0  -0.010884  0  0.981587  0  0  -0.00164  0  1.052247  0  0  -0.000827  0  1.047475  0  0  0.118036  -0.002467  0  1.055749  0
C  C9  1  0.00045635  0.21572422  0.25721164  1  0  0.52873  0  3.841485  0  0  0.477366  0  4.131144  0  0  0.497953  0  4.14181  0  0  0.342128  0.463541  0  4.123605  0
C  C10  1  0.21567377  0.00044702  0.25720905  1  0  0.528139  0  3.841095  0  0  0.476937  0  4.130561  0  0  0.497522  0  4.141234  0  0  0.341926  0.463116  0  4.123015  0
C  C11  1  0.43092000  0.43096173  0.73922779  1  0  0.625588  0  3.877811  0  0  0.558144  0  4.179847  0  0  0.59166  0  4.170849  0  0  0.164973  0.535371  0  4.18501  0
N  N12  1  0.91495245  0.17274863  0.06921958  1  0  -0.512258  0  3.105672  0  0  -0.474437  0  3.401717  0  0  -0.49424  0  3.416317  0  0  -0.32748  -0.460411  0  3.391736  0
N  N13  1  0.17274643  0.91491562  0.06922660  1  0  -0.512084  0  3.105978  0  0  -0.47434  0  3.401979  0  0  -0.494139  0  3.416579  0  0  -0.327495  -0.460319  0  3.391996  0
N  N14  1  0.79654297  0.29456137  0.05429197  1  0  -0.058355  0  3.041284  0  0  -0.043688  0  3.338758  0  0  -0.043707  0  3.351038  0  0  -0.080969  -0.043454  0  3.33025  0
N  N15  1  0.29458943  0.79653711  0.05428536  1  0  -0.058252  0  3.041058  0  0  -0.04359  0  3.33853  0  0  -0.043612  0  3.35081  0  0  -0.080859  -0.043351  0  3.330022  0
N  N16  1  0.81232162  0.40271368  0.22421000  1  0  -0.059565  0  3.043625  0  0  -0.038476  0  3.330264  0  0  -0.038389  0  3.341073  0  0  -0.076078  -0.038272  0  3.323023  0
N  N17  1  0.40274719  0.81230917  0.22420643  1  0  -0.059723  0  3.04356  0  0  -0.038608  0  3.330098  0  0  -0.038516  0  3.340905  0  0  -0.076198  -0.038406  0  3.322857  0
N  N18  1  0.94091688  0.35867034  0.35686487  1  0  -0.378395  0  2.992043  0  0  -0.33441  0  3.261965  0  0  -0.351142  0  3.27396  0  0  -0.223323  -0.323267  0  3.254012  0
N  N19  1  0.35864875  0.94087233  0.35682742  1  0  -0.378362  0  2.992013  0  0  -0.334339  0  3.261809  0  0  -0.351076  0  3.273811  0  0  -0.223236  -0.323196  0  3.253852  0
N  N20  1  0.12914750  0.12918452  0.34342872  1  0  -0.494409  0  3.397021  0  0  -0.436869  0  3.637039  0  0  -0.457055  0  3.640338  0  0  -0.396864  -0.422906  0  3.634489  0
O  O21  1  0.59771308  0.59769905  0.87804468  1  0  -0.622577  0  2.057727  0  0  -0.585103  0  2.31665  0  0  -0.610219  0  2.307412  0  0  -0.362471  -0.566829  0  2.322609  0
O  O22  1  0.23985263  0.23986029  0.74490255  1  0  -0.703587  0  2.070746  0  0  -0.645329  0  2.331101  0  0  -0.673169  0  2.316437  0  0  -0.410928  -0.624833  0  2.340977  0
O  O23  1  0.71567100  0.71565746  0.44293971  1  0  -0.893089  0  1.907228  0  0  -0.833972  0  2.115484  0  0  -0.856097  0  2.080215  0  0  -0.634158  -0.817634  0  2.14032  0
O  O24  1  0.64669128  0.03836526  0.69447849  1  0  -0.934199  0  1.941041  0  0  -0.878006  0  2.158148  0  0  -0.900498  0  2.122716  0  0  -0.66784  -0.861357  0  2.183176  0
O  O25  1  0.03837828  0.64668237  0.69447220  1  0  -0.934276  0  1.940902  0  0  -0.878109  0  2.157926  0  0  -0.900597  0  2.122502  0  0  -0.667931  -0.861461  0  2.182949  0
