# generated using pymatgen
data_CdH3C2Br2N3
_symmetry_space_group_name_H-M   'P 1'
_cell_length_a   7.39786366
_cell_length_b   7.55900580
_cell_length_c   8.03910277
_cell_angle_alpha   117.98749674
_cell_angle_beta   117.39935166
_cell_angle_gamma   90.04039078
_symmetry_Int_Tables_number   1
_chemical_formula_structural   CdH3C2Br2N3
_chemical_formula_sum   'Cd2 H6 C4 Br4 N6'
_cell_volume   338.71714153
_cell_formula_units_Z   2
loop_
 _symmetry_equiv_pos_site_id
 _symmetry_equiv_pos_as_xyz
  1  'x, y, z'
loop_
 _atom_site_type_symbol
 _atom_site_label
 _atom_site_symmetry_multiplicity
 _atom_site_fract_x
 _atom_site_fract_y
 _atom_site_fract_z
 _atom_site_occupancy
 _atom_site_pbe_bader_spin_density
 _atom_site_pbe_cm5_charge
 _atom_site_pbe_ddec_charge
 _atom_site_pbe_ddec_spin_density
 _atom_site_pbe_ddec_sum_bond_order
 _atom_site_pbe_magmom
Cd  Cd0  1  0.50000174  0.00000173  0.50000081  1  0  0.544132  0.669142  0  2.538797  0
Cd  Cd1  1  0.00000088  0.00000027  0.49999921  1  0  0.544371  0.669339  0  2.533593  0
H  H2  1  0.67581448  0.42542230  0.35070203  1  0  0.297031  0.286127  0  0.972176  0
H  H3  1  0.32418165  0.57457956  0.64929494  1  0  0.297049  0.28618  0  0.972064  0
H  H4  1  0.83882165  0.30191968  0.10401458  1  0  0.124972  0.118039  0  1.020547  0
H  H5  1  0.26614680  0.30220321  0.10424779  1  0  0.124675  0.117726  0  1.019872  0
H  H6  1  0.16117451  0.69808219  0.89598614  1  0  0.124961  0.118008  0  1.020557  0
H  H7  1  0.73385195  0.69779710  0.89575082  1  0  0.124675  0.117721  0  1.019879  0
C  C8  1  0.67128448  0.27347650  0.04714463  1  0  0.163053  0.165382  0  3.866745  0
C  C9  1  0.37661305  0.27365478  0.04715941  1  0  0.163321  0.165612  0  3.867531  0
C  C10  1  0.32871688  0.72652225  0.95285438  1  0  0.163122  0.165507  0  3.866922  0
C  C11  1  0.62338418  0.72634552  0.95283982  1  0  0.163306  0.165616  0  3.867532  0
Br  Br12  1  0.17366308  0.67459181  0.34734449  1  0  -0.28003  -0.470039  0  1.388988  0
Br  Br13  1  0.17402037  0.17303389  0.34756226  1  0  -0.279939  -0.469944  0  1.389732  0
Br  Br14  1  0.82598036  0.82696797  0.65244036  1  0  -0.279948  -0.469955  0  1.389719  0
Br  Br15  1  0.82634980  0.32539914  0.65265711  1  0  -0.280026  -0.469996  0  1.389011  0
N  N16  1  0.51275653  0.16963091  0.83947722  1  0  -0.248019  -0.187327  0  3.447064  0
N  N17  1  0.32720113  0.16972605  0.83949496  1  0  -0.248479  -0.188173  0  3.446865  0
N  N18  1  0.48724027  0.83036784  0.16052113  1  0  -0.248052  -0.187392  0  3.447159  0
N  N19  1  0.67279610  0.83027426  0.16050302  1  0  -0.248444  -0.188146  0  3.446899  0
N  N20  1  0.59085749  0.34043321  0.18084054  1  0  -0.36083  -0.206641  0  3.637397  0
N  N21  1  0.40913670  0.65956710  0.81915741  1  0  -0.360901  -0.206784  0  3.637544  0
