# generated using pymatgen
data_CuH4C4(NCl)2
_symmetry_space_group_name_H-M   'P 1'
_cell_length_a   6.71109741
_cell_length_b   7.34166037
_cell_length_c   7.69454956
_cell_angle_alpha   114.13143501
_cell_angle_beta   111.18094111
_cell_angle_gamma   98.97146272
_symmetry_Int_Tables_number   1
_chemical_formula_structural   CuH4C4(NCl)2
_chemical_formula_sum   'Cu2 H8 C8 N4 Cl4'
_cell_volume   301.37149486
_cell_formula_units_Z   2
loop_
 _symmetry_equiv_pos_site_id
 _symmetry_equiv_pos_as_xyz
  1  'x, y, z'
loop_
 _atom_site_type_symbol
 _atom_site_label
 _atom_site_symmetry_multiplicity
 _atom_site_fract_x
 _atom_site_fract_y
 _atom_site_fract_z
 _atom_site_occupancy
 _atom_site_hle17_ddec_charge
 _atom_site_hle17_ddec_spin_density
 _atom_site_hle17_ddec_sum_bond_order
 _atom_site_hle17_magmom
 _atom_site_hse06_10hf_ddec_charge
 _atom_site_hse06_10hf_ddec_spin_density
 _atom_site_hse06_10hf_ddec_sum_bond_order
 _atom_site_hse06_10hf_magmom
 _atom_site_hse06_ddec_charge
 _atom_site_hse06_ddec_spin_density
 _atom_site_hse06_ddec_sum_bond_order
 _atom_site_hse06_magmom
 _atom_site_pbe_cm5_charge
 _atom_site_pbe_ddec_charge
 _atom_site_pbe_ddec_spin_density
 _atom_site_pbe_ddec_sum_bond_order
 _atom_site_pbe_magmom
Cu  Cu0  1  0.99999488  0.00000229  0.00000095  1  0.67258  0.620627  2.015254  0.431  0.656979  0.728599  2.405425  0.555  0.748752  0.825115  2.33  0.65  0.584106  0.606376  0.634399  2.451205  0.476
Cu  Cu1  1  0.50000255  0.00000838  0.00000302  1  0.669983  -0.620642  2.014804  -0.431  0.6548  -0.728651  2.404866  -0.555  0.746461  -0.825182  2.3297  -0.65  0.583705  0.604193  -0.634423  2.450842  -0.477
H  H2  1  0.68650112  0.85090377  0.54998164  1  0.098994  0.000155  0.965912  0.001  0.105203  7.4e-05  1.033895  0.0  0.10849  8.4e-05  1.030022  0.0  0.110463  0.102495  5.8e-05  1.036957  0.0
H  H3  1  0.36401430  0.69909464  0.54988916  1  0.096656  -0.000151  0.967561  -0.001  0.103322  -7.2e-05  1.035356  0.0  0.106546  -8.2e-05  1.031529  0.0  0.109742  0.10062  -5.6e-05  1.038437  0.0
H  H4  1  0.31350259  0.14908966  0.45001131  1  0.099039  0.000156  0.965891  0.001  0.105218  7.4e-05  1.033908  0.0  0.108505  8.5e-05  1.030037  0.0  0.110465  0.102511  5.7e-05  1.036971  0.0
H  H5  1  0.63597936  0.30091927  0.45012033  1  0.096734  -0.000149  0.967419  -0.001  0.103331  -7.2e-05  1.035274  0.0  0.106593  -8.2e-05  1.031408  0.0  0.10973  0.100628  -5.6e-05  1.038355  0.0
H  H6  1  0.66804287  0.63965641  0.18652411  1  0.126275  0.000898  0.954055  0.0  0.134794  0.001094  1.014295  0.001  0.138719  0.000845  1.010637  0.0  0.102569  0.132089  0.001188  1.016769  0.001
H  H7  1  0.01888793  0.54643165  0.18645538  1  0.126767  -0.000895  0.952611  0.0  0.134814  -0.001091  1.013434  -0.001  0.138778  -0.000844  1.009694  0.0  0.102676  0.132101  -0.001186  1.015895  -0.001
H  H8  1  0.33196038  0.36034016  0.81347383  1  0.126284  0.000898  0.954026  0.0  0.134801  0.001094  1.014266  0.001  0.138726  0.000846  1.010607  0.0  0.102551  0.132096  0.001188  1.01674  0.001
H  H9  1  0.98112238  0.45356663  0.81354159  1  0.126706  -0.000895  0.952689  0.0  0.134794  -0.001091  1.013481  -0.001  0.138749  -0.000844  1.00976  0.0  0.102695  0.132082  -0.001186  1.015942  -0.001
C  C10  1  0.82943710  0.80780043  0.53382485  1  0.103714  -0.010977  3.63227  -0.012  0.072708  -0.003688  3.884831  -0.005  0.079017  -0.00476  3.900589  -0.006  0.055663  0.069004  -0.002765  3.875192  -0.004
C  C11  1  0.20490529  0.72599736  0.53377978  1  0.103177  0.010986  3.631452  0.012  0.071715  0.003685  3.885347  0.005  0.078092  0.004759  3.900992  0.006  0.055312  0.068016  0.002761  3.875773  0.004
C  C12  1  0.17056789  0.19218812  0.46617827  1  0.103796  -0.010988  3.632166  -0.012  0.072761  -0.003688  3.8848  -0.005  0.079073  -0.00476  3.900554  -0.006  0.055685  0.069052  -0.002765  3.875161  -0.004
C  C13  1  0.79509408  0.27399752  0.46622274  1  0.103158  0.010966  3.631744  0.012  0.071775  0.003684  3.885565  0.005  0.078122  0.004757  3.901189  0.006  0.055374  0.068084  0.002759  3.875994  0.004
C  C14  1  0.82156031  0.69074837  0.33452763  1  -0.029034  0.015419  3.631657  0.014  -0.046692  0.006872  3.878074  0.007  -0.04642  0.007265  3.891162  0.007  -0.056536  -0.047384  0.006111  3.86981  0.006
C  C15  1  0.01343625  0.64350148  0.33451665  1  -0.02879  -0.015455  3.630014  -0.014  -0.046511  -0.006894  3.87767  -0.007  -0.046243  -0.007281  3.890698  -0.007  -0.057534  -0.047177  -0.006138  3.869444  -0.006
C  C16  1  0.17843677  0.30924019  0.66546386  1  -0.029125  0.015421  3.631789  0.014  -0.046765  0.006871  3.878222  0.007  -0.046493  0.007263  3.891307  0.007  -0.056543  -0.047452  0.00611  3.869955  0.006
C  C17  1  0.98656096  0.35649183  0.66548065  1  -0.02871  -0.015457  3.630024  -0.014  -0.046473  -0.006897  3.877617  -0.007  -0.046203  -0.007283  3.890648  -0.007  -0.057538  -0.047145  -0.006139  3.869392  -0.006
N  N18  1  0.01651405  0.87726353  0.72012189  1  -0.140559  0.069551  3.338335  0.087  -0.091517  0.051669  3.615854  0.069  -0.116006  0.047152  3.646386  0.066  -0.223031  -0.078138  0.049927  3.599342  0.065
N  N19  1  0.20394603  0.84289310  0.72007333  1  -0.13312  -0.069505  3.332961  -0.087  -0.085079  -0.051626  3.610723  -0.069  -0.109425  -0.047109  3.641219  -0.066  -0.219769  -0.071847  -0.049887  3.5943  -0.065
N  N20  1  0.98348198  0.12273935  0.27987492  1  -0.14052  0.069563  3.338103  0.087  -0.091445  0.051672  3.615597  0.069  -0.115937  0.047155  3.646129  0.066  -0.22299  -0.078061  0.049928  3.599093  0.065
N  N21  1  0.79605465  0.15712248  0.27993777  1  -0.133264  -0.069492  3.333309  -0.087  -0.085186  -0.051624  3.610965  -0.069  -0.109532  -0.047107  3.641476  -0.066  -0.219876  -0.071975  -0.049886  3.594567  -0.065
Cl  Cl22  1  0.70160814  0.69209152  0.85658814  1  -0.497486  0.122167  1.029242  0.137  -0.504407  0.083108  1.330246  0.099  -0.539589  0.067379  1.307956  0.083  -0.281736  -0.482661  0.086023  1.345193  0.1
Cl  Cl23  1  0.65501813  0.16449183  0.85640564  1  -0.497877  -0.12218  1.02894  -0.137  -0.504258  -0.083102  1.328981  -0.099  -0.539581  -0.067375  1.306924  -0.083  -0.281728  -0.482424  -0.086022  1.343844  -0.1
Cl  Cl24  1  0.29838989  0.30790818  0.14340935  1  -0.497514  0.122167  1.029268  0.137  -0.504426  0.083106  1.330263  0.099  -0.539612  0.067381  1.307975  0.083  -0.28173  -0.482669  0.086022  1.345192  0.1
Cl  Cl25  1  0.34498492  0.83551273  0.14359278  1  -0.497865  -0.122185  1.028835  -0.137  -0.504254  -0.083104  1.328872  -0.099  -0.539579  -0.067376  1.306821  -0.083  -0.281726  -0.482414  -0.086022  1.343731  -0.1
