# generated using pymatgen
data_KH2(C2O)2
_symmetry_space_group_name_H-M   'P 1'
_cell_length_a   3.87069029
_cell_length_b   10.59161515
_cell_length_c   11.63572191
_cell_angle_alpha   111.78997166
_cell_angle_beta   90.00067097
_cell_angle_gamma   89.99988020
_symmetry_Int_Tables_number   1
_chemical_formula_structural   KH2(C2O)2
_chemical_formula_sum   'K4 H8 C16 O8'
_cell_volume   442.94481532
_cell_formula_units_Z   4
loop_
 _symmetry_equiv_pos_site_id
 _symmetry_equiv_pos_as_xyz
  1  'x, y, z'
loop_
 _atom_site_type_symbol
 _atom_site_label
 _atom_site_symmetry_multiplicity
 _atom_site_fract_x
 _atom_site_fract_y
 _atom_site_fract_z
 _atom_site_occupancy
 _atom_site_hle17_bader_spin_density
 _atom_site_hle17_ddec_charge
 _atom_site_hle17_ddec_spin_density
 _atom_site_hle17_ddec_sum_bond_order
 _atom_site_hle17_magmom
 _atom_site_hse06_10hf_bader_spin_density
 _atom_site_hse06_10hf_ddec_charge
 _atom_site_hse06_10hf_ddec_spin_density
 _atom_site_hse06_10hf_ddec_sum_bond_order
 _atom_site_hse06_10hf_magmom
 _atom_site_hse06_bader_spin_density
 _atom_site_hse06_ddec_charge
 _atom_site_hse06_ddec_spin_density
 _atom_site_hse06_ddec_sum_bond_order
 _atom_site_hse06_magmom
 _atom_site_pbe_bader_spin_density
 _atom_site_pbe_cm5_charge
 _atom_site_pbe_ddec_charge
 _atom_site_pbe_ddec_spin_density
 _atom_site_pbe_ddec_sum_bond_order
 _atom_site_pbe_magmom
K  K0  1  0.79179489  0.39312377  0.84115496  1  0  0.932287  0  0.517162  0  0  0.884408  0  0.711329  0  0  0.90076  0  0.687011  0  0  0.818325  0.87153  0  0.729473  0
K  K1  1  0.70821192  0.39311653  0.34115180  1  0  0.93229  0  0.517154  0  0  0.884387  0  0.711362  0  0  0.900743  0  0.68704  0  0  0.818328  0.87151  0  0.729509  0
K  K2  1  0.20822242  0.60688244  0.15885371  1  0  0.932293  0  0.517146  0  0  0.884394  0  0.711355  0  0  0.900742  0  0.687036  0  0  0.818307  0.871513  0  0.729504  0
K  K3  1  0.29179506  0.60687850  0.65885297  1  0  0.932266  0  0.517183  0  0  0.884383  0  0.711349  0  0  0.900732  0  0.687032  0  0  0.818314  0.871502  0  0.729497  0
H  H4  1  0.25101012  0.13713297  0.20481023  1  0  0.079859  0  0.989055  0  0  0.08539  0  1.063227  0  0  0.089728  0  1.059408  0  0  0.103741  0.081959  0  1.066605  0
H  H5  1  0.24898045  0.13713510  0.70481057  1  0  0.079898  0  0.98908  0  0  0.085437  0  1.063246  0  0  0.089763  0  1.059439  0  0  0.103758  0.082009  0  1.066619  0
H  H6  1  0.74894777  0.86286319  0.79518721  1  0  0.079909  0  0.988976  0  0  0.08548  0  1.063103  0  0  0.089783  0  1.059331  0  0  0.103771  0.082048  0  1.066485  0
H  H7  1  0.75104719  0.86285907  0.29518273  1  0  0.079823  0  0.988985  0  0  0.085406  0  1.063105  0  0  0.089703  0  1.059344  0  0  0.103745  0.081981  0  1.066472  0
H  H8  1  0.57039330  0.10246237  0.84105426  1  0  0.083658  0  0.969066  0  0  0.095048  0  1.03264  0  0  0.09819  0  1.030829  0  0  0.104782  0.092229  0  1.035052  0
H  H9  1  0.92958664  0.10246041  0.34105382  1  0  0.083696  0  0.969103  0  0  0.095065  0  1.032691  0  0  0.098226  0  1.030867  0  0  0.10479  0.092255  0  1.035107  0
H  H10  1  0.42954135  0.89753280  0.15894110  1  0  0.083695  0  0.969039  0  0  0.095022  0  1.032707  0  0  0.098207  0  1.030826  0  0  0.104755  0.092206  0  1.035131  0
H  H11  1  0.07044617  0.89753473  0.65894326  1  0  0.083715  0  0.969083  0  0  0.095036  0  1.032741  0  0  0.098227  0  1.030857  0  0  0.104779  0.092232  0  1.035138  0
C  C12  1  0.28805738  0.28167070  0.05614367  1  0  0.676535  0  3.945894  0  0  0.632871  0  4.240999  0  0  0.666029  0  4.231764  0  0  0.190513  0.610553  0  4.245766  0
C  C13  1  0.21194532  0.28166872  0.55614330  1  0  0.676356  0  3.9458  0  0  0.632687  0  4.240928  0  0  0.665845  0  4.23169  0  0  0.190413  0.610368  0  4.245694  0
C  C14  1  0.71193152  0.71833560  0.94385902  1  0  0.676561  0  3.94599  0  0  0.632883  0  4.241106  0  0  0.66604  0  4.231869  0  0  0.19047  0.610563  0  4.245873  0
C  C15  1  0.78808233  0.71833146  0.44385897  1  0  0.676555  0  3.946072  0  0  0.632878  0  4.241186  0  0  0.666037  0  4.231946  0  0  0.190443  0.610559  0  4.245952  0
C  C16  1  0.39806863  0.13586695  0.02622590  1  0  -0.054931  0  3.72155  0  0  -0.030803  0  3.947852  0  0  -0.036795  0  3.970607  0  0  -0.00883  -0.026932  0  3.932124  0
C  C17  1  0.10192605  0.13586482  0.52622849  1  0  -0.055023  0  3.721562  0  0  -0.030871  0  3.94784  0  0  -0.036859  0  3.970592  0  0  -0.008819  -0.026995  0  3.932119  0
C  C18  1  0.60191510  0.86412724  0.97376654  1  0  -0.055043  0  3.72147  0  0  -0.030888  0  3.947765  0  0  -0.036884  0  3.970521  0  0  -0.008878  -0.027009  0  3.932043  0
C  C19  1  0.89808610  0.86412422  0.47376647  1  0  -0.055172  0  3.721476  0  0  -0.031017  0  3.947762  0  0  -0.037012  0  3.970515  0  0  -0.008871  -0.027139  0  3.932038  0
C  C20  1  0.36139471  0.07646154  0.11506585  1  0  -0.086534  0  3.755242  0  0  -0.108078  0  4.004428  0  0  -0.109971  0  4.02621  0  0  -0.081996  -0.106456  0  3.989738  0
C  C21  1  0.13859822  0.07646459  0.61506609  1  0  -0.086503  0  3.755291  0  0  -0.108068  0  4.004465  0  0  -0.109952  0  4.026258  0  0  -0.082003  -0.106453  0  3.989781  0
C  C22  1  0.63856577  0.92353766  0.88493350  1  0  -0.086591  0  3.75485  0  0  -0.108182  0  4.004029  0  0  -0.110053  0  4.025825  0  0  -0.082017  -0.10657  0  3.989347  0
C  C23  1  0.86142943  0.92353871  0.38493212  1  0  -0.086399  0  3.754776  0  0  -0.107977  0  4.003931  0  0  -0.109845  0  4.025746  0  0  -0.081989  -0.10636  0  3.989247  0
C  C24  1  0.46121395  0.94251736  0.08927543  1  0  -0.064045  0  3.73121  0  0  -0.085687  0  3.976163  0  0  -0.087303  0  3.997914  0  0  -0.076892  -0.084273  0  3.961596  0
C  C25  1  0.03877348  0.94251621  0.58927639  1  0  -0.064108  0  3.731222  0  0  -0.085749  0  3.97619  0  0  -0.08737  0  3.997933  0  0  -0.076983  -0.084333  0  3.96163  0
C  C26  1  0.53872328  0.05748800  0.91072177  1  0  -0.064098  0  3.731121  0  0  -0.08577  0  3.976105  0  0  -0.087366  0  3.997855  0  0  -0.077042  -0.084338  0  3.961529  0
C  C27  1  0.96125933  0.05748508  0.41071940  1  0  -0.064069  0  3.731121  0  0  -0.085747  0  3.97613  0  0  -0.087363  0  3.997867  0  0  -0.076963  -0.084333  0  3.961568  0
O  O28  1  0.19537541  0.35019931  0.16707933  1  0  -0.782777  0  1.971334  0  0  -0.735417  0  2.216457  0  0  -0.759391  0  2.205035  0  0  -0.532259  -0.717827  0  2.223786  0
O  O29  1  0.30463339  0.35019638  0.66707986  1  0  -0.782728  0  1.971309  0  0  -0.735375  0  2.216425  0  0  -0.759348  0  2.205006  0  0  -0.532275  -0.717783  0  2.223752  0
O  O30  1  0.80462641  0.64980794  0.83292798  1  0  -0.782829  0  1.97141  0  0  -0.735466  0  2.216508  0  0  -0.75944  0  2.205093  0  0  -0.532272  -0.717873  0  2.223835  0
O  O31  1  0.69539426  0.64980065  0.33292734  1  0  -0.782819  0  1.971354  0  0  -0.735459  0  2.216472  0  0  -0.759431  0  2.205049  0  0  -0.532297  -0.717867  0  2.223799  0
O  O32  1  0.29681326  0.32892082  0.97012048  1  0  -0.783995  0  1.957157  0  0  -0.737627  0  2.203308  0  0  -0.761164  0  2.190706  0  0  -0.51727  -0.72069  0  2.2115  0
O  O33  1  0.20319073  0.32891968  0.47011943  1  0  -0.783879  0  1.957054  0  0  -0.737504  0  2.203201  0  0  -0.761044  0  2.190606  0  0  -0.517216  -0.720568  0  2.211396  0
O  O34  1  0.70317822  0.67108651  0.02988170  1  0  -0.783957  0  1.957067  0  0  -0.737583  0  2.203226  0  0  -0.761118  0  2.190622  0  0  -0.51721  -0.720647  0  2.21142  0
O  O35  1  0.79684208  0.67108661  0.52988411  1  0  -0.783895  0  1.957045  0  0  -0.737506  0  2.203163  0  0  -0.761045  0  2.190565  0  0  -0.517153  -0.720573  0  2.211355  0
