# generated using pymatgen
data_CsH4C4IN2O3
_symmetry_space_group_name_H-M   'P 1'
_cell_length_a   7.33340748
_cell_length_b   7.49180257
_cell_length_c   9.37808437
_cell_angle_alpha   110.72976604
_cell_angle_beta   102.70970193
_cell_angle_gamma   93.80216890
_symmetry_Int_Tables_number   1
_chemical_formula_structural   CsH4C4IN2O3
_chemical_formula_sum   'Cs2 H8 C8 I2 N4 O6'
_cell_volume   464.16493176
_cell_formula_units_Z   2
loop_
 _symmetry_equiv_pos_site_id
 _symmetry_equiv_pos_as_xyz
  1  'x, y, z'
loop_
 _atom_site_type_symbol
 _atom_site_label
 _atom_site_symmetry_multiplicity
 _atom_site_fract_x
 _atom_site_fract_y
 _atom_site_fract_z
 _atom_site_occupancy
 _atom_site_pbe_bader_spin_density
 _atom_site_pbe_cm5_charge
 _atom_site_pbe_ddec_charge
 _atom_site_pbe_ddec_spin_density
 _atom_site_pbe_ddec_sum_bond_order
 _atom_site_pbe_magmom
Cs  Cs0  1  0.66715031  0.90680647  0.28516908  1  0  0.655109  0.834546  0  0.820179  0
Cs  Cs1  1  0.33285409  0.09319317  0.71483236  1  0  0.655115  0.83456  0  0.820176  0
H  H2  1  0.95311286  0.43337914  0.84656946  1  0  0.126484  0.178662  0  0.971958  0
H  H3  1  0.04688727  0.56662050  0.15342702  1  0  0.126458  0.178616  0  0.972038  0
H  H4  1  0.73224334  0.45468516  0.89230038  1  0  0.109188  0.159288  0  1.011368  0
H  H5  1  0.26775825  0.54531448  0.10769954  1  0  0.109191  0.159284  0  1.011399  0
H  H6  1  0.72839408  0.47824050  0.45161968  1  0  0.282894  0.279058  0  0.999031  0
H  H7  1  0.27160515  0.52176203  0.54837961  1  0  0.282885  0.279077  0  0.999025  0
H  H8  1  0.95535843  0.95738261  0.85889167  1  0  0.317164  0.303694  0  0.977804  0
H  H9  1  0.04464342  0.04261848  0.14111083  1  0  0.317176  0.303725  0  0.97777  0
C  C10  1  0.88460846  0.71475811  0.90503442  1  0  0.261144  0.610224  0  4.037535  0
C  C11  1  0.11539199  0.28524298  0.09496786  1  0  0.261154  0.610255  0  4.037463  0
C  C12  1  0.73414461  0.42029248  0.65420066  1  0  0.257674  0.611788  0  4.029248  0
C  C13  1  0.26585277  0.57970717  0.34579751  1  0  0.257708  0.611917  0  4.029067  0
C  C14  1  0.82389228  0.50030410  0.82901877  1  0  -0.154745  -0.465234  0  3.889429  0
C  C15  1  0.17610490  0.49969411  0.17098003  1  0  -0.154757  -0.46521  0  3.889457  0
C  C16  1  0.85728495  0.72729929  0.64451550  1  0  0.350629  0.682751  0  4.13174  0
C  C17  1  0.14271388  0.27270036  0.35548611  1  0  0.350614  0.682724  0  4.131805  0
I  I18  1  0.63962124  0.34178224  0.15590069  1  0  -0.352899  -0.68855  0  1.014556  0
I  I19  1  0.36037836  0.65821308  0.84410302  1  0  -0.352896  -0.688544  0  1.014562  0
N  N20  1  0.77099117  0.53617961  0.57476251  1  0  -0.382282  -0.449636  0  3.465621  0
N  N21  1  0.22900831  0.46382438  0.42523830  1  0  -0.382212  -0.449641  0  3.46546  0
N  N22  1  0.89457758  0.81172948  0.80748186  1  0  -0.389776  -0.474431  0  3.5105  0
N  N23  1  0.10542423  0.18827161  0.19251851  1  0  -0.389766  -0.474434  0  3.510585  0
O  O24  1  0.93031377  0.80099777  0.05101566  1  0  -0.323925  -0.504054  0  2.18647  0
O  O25  1  0.06968737  0.19899898  0.94898337  1  0  -0.323963  -0.50411  0  2.186313  0
O  O26  1  0.64132374  0.25642947  0.58298779  1  0  -0.388457  -0.531167  0  2.141575  0
O  O27  1  0.35867154  0.74357452  0.41701234  1  0  -0.388494  -0.531258  0  2.141422  0
O  O28  1  0.89546682  0.82043682  0.56680243  1  0  -0.368214  -0.546955  0  2.110342  0
O  O29  1  0.10453265  0.17956716  0.43319838  1  0  -0.368202  -0.546946  0  2.110478  0
