# generated using pymatgen
data_Cu2H2C2N3Cl2
_symmetry_space_group_name_H-M   'P 1'
_cell_length_a   6.86186688
_cell_length_b   6.91582891
_cell_length_c   7.70683731
_cell_angle_alpha   114.32220759
_cell_angle_beta   114.17297532
_cell_angle_gamma   94.68993627
_symmetry_Int_Tables_number   1
_chemical_formula_structural   Cu2H2C2N3Cl2
_chemical_formula_sum   'Cu4 H4 C4 N6 Cl4'
_cell_volume   289.92535120
_cell_formula_units_Z   2
loop_
 _symmetry_equiv_pos_site_id
 _symmetry_equiv_pos_as_xyz
  1  'x, y, z'
loop_
 _atom_site_type_symbol
 _atom_site_label
 _atom_site_symmetry_multiplicity
 _atom_site_fract_x
 _atom_site_fract_y
 _atom_site_fract_z
 _atom_site_occupancy
 _atom_site_pbe_cm5_charge
 _atom_site_pbe_ddec_charge
 _atom_site_pbe_ddec_spin_density
 _atom_site_pbe_ddec_sum_bond_order
 _atom_site_pbe_magmom
Cu  Cu0  1  0.21424275  0.46356093  0.42725334  1  0.419576  0.457393  0.235312  2.390266  0.198
Cu  Cu1  1  0.78575985  0.53643323  0.57274208  1  0.419594  0.457369  0.235186  2.390517  0.198
Cu  Cu2  1  0.99999671  0.00000207  0.50001422  1  0.581524  0.612624  0.53217  2.371565  0.437
Cu  Cu3  1  0.49997893  0.99999980  0.49998383  1  0.581974  0.612057  0.533116  2.373426  0.438
H  H4  1  0.70905596  0.27564555  0.02754047  1  0.121584  0.110379  0.000851  1.003473  0.0
H  H5  1  0.31968163  0.25125862  0.02774167  1  0.121392  0.11046  0.000865  1.003968  0.0
H  H6  1  0.29090333  0.72438948  0.97248064  1  0.121562  0.110323  0.000851  1.003717  0.0
H  H7  1  0.68025014  0.74870475  0.97223672  1  0.121314  0.110529  0.000865  1.003615  0.0
C  C8  1  0.83281031  0.24351420  0.97508715  1  0.137025  0.164225  0.001312  3.912539  0.003
C  C9  1  0.14339317  0.23104582  0.97516294  1  0.136678  0.1633  0.001327  3.915559  0.003
C  C10  1  0.16719549  0.75650947  0.02493242  1  0.136994  0.164284  0.001313  3.913764  0.003
C  C11  1  0.85659578  0.76893330  0.02481133  1  0.136672  0.163112  0.001323  3.914218  0.003
N  N12  1  0.78470418  0.13697843  0.76739104  1  -0.298008  -0.193948  0.034621  3.635271  0.045
N  N13  1  0.98348542  0.13012933  0.76743950  1  -0.297907  -0.194112  0.03449  3.63838  0.045
N  N14  1  0.21534764  0.86303761  0.23260878  1  -0.298026  -0.193706  0.03462  3.635991  0.045
N  N15  1  0.01656454  0.86985670  0.23256112  1  -0.297983  -0.194362  0.034489  3.637671  0.045
N  N16  1  0.05628478  0.30524713  0.11125679  1  -0.392733  -0.295337  0.00861  3.624689  0.009
N  N17  1  0.94376460  0.69474241  0.88873458  1  -0.392524  -0.295175  0.008601  3.624477  0.009
Cl  Cl18  1  0.26517299  0.81654506  0.64928720  1  -0.264814  -0.467571  0.074806  1.786535  0.099
Cl  Cl19  1  0.38444253  0.33216843  0.64951040  1  -0.264548  -0.467186  0.07525  1.788641  0.1
Cl  Cl20  1  0.61555409  0.66783340  0.35050263  1  -0.264519  -0.467118  0.075243  1.788599  0.1
Cl  Cl21  1  0.73482648  0.18346702  0.35071912  1  -0.264825  -0.46754  0.07478  1.786555  0.099
