# generated using pymatgen
data_CuH4C6(ClO3)2
_symmetry_space_group_name_H-M   'P 1'
_cell_length_a   4.64573979
_cell_length_b   8.08498203
_cell_length_c   12.47917897
_cell_angle_alpha   101.13578571
_cell_angle_beta   90.00090432
_cell_angle_gamma   90.00046520
_symmetry_Int_Tables_number   1
_chemical_formula_structural   CuH4C6(ClO3)2
_chemical_formula_sum   'Cu2 H8 C12 Cl4 O12'
_cell_volume   459.90189557
_cell_formula_units_Z   2
loop_
 _symmetry_equiv_pos_site_id
 _symmetry_equiv_pos_as_xyz
  1  'x, y, z'
loop_
 _atom_site_type_symbol
 _atom_site_label
 _atom_site_symmetry_multiplicity
 _atom_site_fract_x
 _atom_site_fract_y
 _atom_site_fract_z
 _atom_site_occupancy
 _atom_site_pbe_cm5_charge
 _atom_site_pbe_ddec_charge
 _atom_site_pbe_ddec_spin_density
 _atom_site_pbe_ddec_sum_bond_order
 _atom_site_pbe_magmom
Cu  Cu0  1  0.00000047  0.49999316  0.50000733  1  0.724315  0.986718  0.801601  2.079885  0.636
Cu  Cu1  1  0.50000742  0.99999555  0.99999410  1  0.724289  0.986714  -0.801586  2.079848  -0.635
H  H2  1  0.76389719  0.43939166  0.30906543  1  0.295346  0.382708  0.00099  0.940194  0.001
H  H3  1  0.26392667  0.06061935  0.19095131  1  0.295338  0.382748  -0.00099  0.940099  -0.001
H  H4  1  0.23603492  0.56067092  0.69096154  1  0.295375  0.38272  0.000989  0.940161  0.001
H  H5  1  0.73609369  0.93934786  0.80904268  1  0.295301  0.382585  -0.00099  0.940352  -0.001
H  H6  1  0.55489154  0.35266647  0.38565697  1  0.303726  0.411738  0.001052  0.909578  0.001
H  H7  1  0.05489556  0.14733191  0.11434868  1  0.303715  0.411745  -0.001053  0.909562  -0.001
H  H8  1  0.44509654  0.64735018  0.61435539  1  0.303704  0.411706  0.001053  0.909609  0.001
H  H9  1  0.94511188  0.85267418  0.88565316  1  0.303741  0.411794  -0.001052  0.909494  -0.001
C  C10  1  0.13777081  0.12804587  0.45030504  1  0.109219  0.260174  0.002213  4.135342  0.004
C  C11  1  0.63778537  0.37195281  0.04970107  1  0.109279  0.260366  -0.002212  4.135073  -0.004
C  C12  1  0.86222373  0.87194106  0.54969693  1  0.109255  0.26027  0.002211  4.135052  0.004
C  C13  1  0.36224575  0.62804412  0.95030331  1  0.109255  0.260303  -0.00221  4.135277  -0.004
C  C14  1  0.21661706  0.95829508  0.41577559  1  -0.049079  -0.160409  0.00503  4.104885  0.007
C  C15  1  0.71664745  0.54170900  0.08421676  1  -0.048995  -0.160428  -0.005028  4.10478  -0.007
C  C16  1  0.78335380  0.04170675  0.58421674  1  -0.048887  -0.160171  0.005031  4.104404  0.007
C  C17  1  0.28338583  0.45828906  0.91577496  1  -0.048961  -0.160342  -0.005031  4.104703  -0.007
C  C18  1  0.08965304  0.82904913  0.45967670  1  0.108871  0.249436  0.00076  4.085453  -0.003
C  C19  1  0.58968419  0.67094331  0.04031154  1  0.108725  0.249401  -0.000761  4.085553  0.003
C  C20  1  0.91032427  0.17094822  0.54032293  1  0.108831  0.249473  0.00076  4.085243  -0.003
C  C21  1  0.41035984  0.32904301  0.95966866  1  0.108858  0.249506  -0.00076  4.085208  0.003
Cl  Cl22  1  0.47278854  0.90892079  0.31453912  1  0.025403  0.001026  0.000108  1.789439  0.0
Cl  Cl23  1  0.97277328  0.59108539  0.18547007  1  0.02542  0.001082  -0.000107  1.789414  0.0
Cl  Cl24  1  0.52718662  0.09107734  0.68545181  1  0.025363  0.001004  0.000109  1.789372  0.0
Cl  Cl25  1  0.02719973  0.40890622  0.81453666  1  0.025378  0.001029  -0.000107  1.789428  0.0
O  O26  1  0.23946009  0.24943025  0.41190611  1  -0.290901  -0.475143  0.000304  2.317394  0.001
O  O27  1  0.73944368  0.25057467  0.08810632  1  -0.290932  -0.47525  -0.000304  2.317568  -0.001
O  O28  1  0.76054735  0.75057115  0.58810541  1  -0.290935  -0.475202  0.000305  2.317467  0.001
O  O29  1  0.26052933  0.74942030  0.91190577  1  -0.290912  -0.47517  -0.000304  2.317321  -0.001
O  O30  1  0.15456807  0.67459650  0.42705127  1  -0.291217  -0.411608  0.061834  2.419113  0.088
O  O31  1  0.65460640  0.82540624  0.07293894  1  -0.291176  -0.411671  -0.061858  2.419179  -0.088
O  O32  1  0.84544153  0.32541945  0.57295456  1  -0.291294  -0.411729  0.06186  2.419239  0.088
O  O33  1  0.34544194  0.17457854  0.92704422  1  -0.291278  -0.411729  -0.06186  2.419175  -0.088
O  O34  1  0.69435147  0.44501712  0.38371788  1  -0.573554  -0.751353  0.043889  2.212848  0.059
O  O35  1  0.19436860  0.05498883  0.11628084  1  -0.573528  -0.751415  -0.04389  2.212648  -0.059
O  O36  1  0.30563876  0.55500561  0.61629786  1  -0.573549  -0.751375  0.043891  2.212737  0.059
O  O37  1  0.80564100  0.94500049  0.88369422  1  -0.573511  -0.751251  -0.043885  2.21293  -0.059
