# generated using pymatgen
data_CdH4C4(S2N3)2
_symmetry_space_group_name_H-M   'P 1'
_cell_length_a   7.94897391
_cell_length_b   8.12776464
_cell_length_c   8.12766174
_cell_angle_alpha   82.63991047
_cell_angle_beta   87.65675031
_cell_angle_gamma   87.65635455
_symmetry_Int_Tables_number   1
_chemical_formula_structural   CdH4C4(S2N3)2
_chemical_formula_sum   'Cd2 H8 C8 S8 N12'
_cell_volume   520.00804184
_cell_formula_units_Z   2
loop_
 _symmetry_equiv_pos_site_id
 _symmetry_equiv_pos_as_xyz
  1  'x, y, z'
loop_
 _atom_site_type_symbol
 _atom_site_label
 _atom_site_symmetry_multiplicity
 _atom_site_fract_x
 _atom_site_fract_y
 _atom_site_fract_z
 _atom_site_occupancy
 _atom_site_hle17_bader_spin_density
 _atom_site_hle17_ddec_charge
 _atom_site_hle17_ddec_spin_density
 _atom_site_hle17_ddec_sum_bond_order
 _atom_site_hle17_magmom
 _atom_site_hse06_10hf_bader_spin_density
 _atom_site_hse06_10hf_ddec_charge
 _atom_site_hse06_10hf_ddec_spin_density
 _atom_site_hse06_10hf_ddec_sum_bond_order
 _atom_site_hse06_10hf_magmom
 _atom_site_hse06_bader_spin_density
 _atom_site_hse06_ddec_charge
 _atom_site_hse06_ddec_spin_density
 _atom_site_hse06_ddec_sum_bond_order
 _atom_site_hse06_magmom
 _atom_site_pbe_bader_spin_density
 _atom_site_pbe_cm5_charge
 _atom_site_pbe_ddec_charge
 _atom_site_pbe_ddec_spin_density
 _atom_site_pbe_ddec_sum_bond_order
 _atom_site_pbe_magmom
Cd  Cd0  1  0.25000052  0.08394860  0.91604765  1  0  0.83838  0  1.982617  0  0  0.656063  0  2.445957  0  0  0.699727  0  2.41354  0  0  0.607334  0.62605  0  2.467012  0
Cd  Cd1  1  0.75000152  0.91604910  0.08395421  1  0  0.838378  0  1.982582  0  0  0.656053  0  2.445936  0  0  0.699718  0  2.413517  0  0  0.607313  0.62604  0  2.466986  0
H  H2  1  0.12042022  0.37943446  0.50388221  1  0  0.325463  0  0.93178  0  0  0.30028  0  1.007904  0  0  0.309285  0  1.000173  0  0  0.291612  0.293989  0  1.01322  0
H  H3  1  0.37957813  0.49612160  0.62056286  1  0  0.325404  0  0.931973  0  0  0.300179  0  1.00816  0  0  0.309184  0  1.000427  0  0  0.291576  0.293889  0  1.013476  0
H  H4  1  0.87958066  0.62056071  0.49611513  1  0  0.325392  0  0.931893  0  0  0.300194  0  1.008069  0  0  0.309199  0  1.000339  0  0  0.291574  0.293901  0  1.013382  0
H  H5  1  0.62042373  0.50388108  0.37943830  1  0  0.325393  0  0.93196  0  0  0.300203  0  1.008102  0  0  0.309208  0  1.00037  0  0  0.291585  0.293912  0  1.013417  0
H  H6  1  0.28030163  0.31725729  0.36431711  1  0  0.318016  0  0.928563  0  0  0.29621  0  1.004506  0  0  0.302878  0  0.99967  0  0  0.283361  0.291466  0  1.007979  0
H  H7  1  0.21969606  0.63567744  0.68273608  1  0  0.317991  0  0.928638  0  0  0.296183  0  1.004573  0  0  0.302853  0  0.999737  0  0  0.283383  0.291441  0  1.008043  0
H  H8  1  0.71969794  0.68273913  0.63568132  1  0  0.318016  0  0.928576  0  0  0.296207  0  1.004522  0  0  0.302874  0  0.999687  0  0  0.283385  0.291462  0  1.007993  0
H  H9  1  0.78030090  0.36432150  0.31726456  1  0  0.318031  0  0.928597  0  0  0.296228  0  1.004532  0  0  0.302894  0  0.9997  0  0  0.283409  0.291485  0  1.008002  0
C  C10  1  0.08085318  0.71695461  0.03170352  1  0  0.134551  0  3.87066  0  0  0.120147  0  4.173166  0  0  0.133659  0  4.190231  0  0  0.090273  0.111045  0  4.161374  0
C  C11  1  0.41914556  0.96829304  0.28304488  1  0  0.134598  0  3.87069  0  0  0.120176  0  4.173222  0  0  0.133691  0  4.190282  0  0  0.090283  0.111076  0  4.161426  0
C  C12  1  0.91914761  0.28304305  0.96829470  1  0  0.134516  0  3.870679  0  0  0.120119  0  4.173157  0  0  0.133632  0  4.190221  0  0  0.09026  0.111017  0  4.161371  0
C  C13  1  0.58084885  0.03170712  0.71695322  1  0  0.134542  0  3.870822  0  0  0.120159  0  4.17327  0  0  0.133674  0  4.190331  0  0  0.090312  0.111057  0  4.161481  0
C  C14  1  0.12320574  0.50649118  0.26933387  1  0  0.391419  0  3.835867  0  0  0.357147  0  4.138503  0  0  0.377208  0  4.149897  0  0  0.229554  0.343658  0  4.130531  0
C  C15  1  0.37679355  0.73066900  0.49350078  1  0  0.391231  0  3.835636  0  0  0.357017  0  4.138188  0  0  0.37707  0  4.149589  0  0  0.229566  0.343529  0  4.130215  0
C  C16  1  0.87679631  0.49350650  0.73066553  1  0  0.391355  0  3.836004  0  0  0.357102  0  4.138611  0  0  0.377163  0  4.150006  0  0  0.229557  0.343613  0  4.130639  0
C  C17  1  0.62320584  0.26933240  0.50649819  1  0  0.391305  0  3.835927  0  0  0.35707  0  4.138499  0  0  0.377129  0  4.149894  0  0  0.229584  0.343582  0  4.130529  0
S  S18  1  0.07332874  0.84855597  0.84790979  1  0  -0.430427  0  2.246849  0  0  -0.391224  0  2.624733  0  0  -0.410901  0  2.618609  0  0  -0.208294  -0.377212  0  2.627972  0
S  S19  1  0.42666930  0.15208743  0.15144745  1  0  -0.430435  0  2.246889  0  0  -0.391228  0  2.624774  0  0  -0.410906  0  2.618647  0  0  -0.208297  -0.377216  0  2.628014  0
S  S20  1  0.92667075  0.15144293  0.15208831  1  0  -0.430409  0  2.24689  0  0  -0.391205  0  2.624768  0  0  -0.410881  0  2.618641  0  0  -0.208295  -0.377191  0  2.62801  0
S  S21  1  0.57333132  0.84791410  0.84856131  1  0  -0.430407  0  2.246849  0  0  -0.39121  0  2.624711  0  0  -0.410887  0  2.618584  0  0  -0.208289  -0.377197  0  2.62795  0
S  S22  1  0.23844033  0.56446307  0.08354902  1  0  0.070967  0  2.360832  0  0  0.079309  0  2.678458  0  0  0.079331  0  2.677078  0  0  0.089684  0.078663  0  2.679677  0
S  S23  1  0.26155855  0.91645114  0.43553642  1  0  0.071  0  2.36091  0  0  0.079324  0  2.678523  0  0  0.079352  0  2.677143  0  0  0.089675  0.078677  0  2.679739  0
S  S24  1  0.76156526  0.43554085  0.91645306  1  0  0.070965  0  2.36091  0  0  0.079287  0  2.678549  0  0  0.079309  0  2.677168  0  0  0.08969  0.078644  0  2.679768  0
S  S25  1  0.73843700  0.08355268  0.56445743  1  0  0.071044  0  2.361068  0  0  0.079362  0  2.67867  0  0  0.079384  0  2.677291  0  0  0.089709  0.078717  0  2.679887  0
N  N26  1  0.96152755  0.71552494  0.14960341  1  0  -0.254835  0  3.332101  0  0  -0.191435  0  3.61514  0  0  -0.206665  0  3.634365  0  0  -0.257517  -0.181127  0  3.601874  0
N  N27  1  0.53847127  0.85039580  0.28447559  1  0  -0.254878  0  3.332046  0  0  -0.191471  0  3.615074  0  0  -0.206702  0  3.634297  0  0  -0.257505  -0.181162  0  3.60181  0
N  N28  1  0.03847206  0.28447027  0.85039766  1  0  -0.254821  0  3.331993  0  0  -0.191419  0  3.615034  0  0  -0.20665  0  3.634259  0  0  -0.257527  -0.181112  0  3.601776  0
N  N29  1  0.46153192  0.14960444  0.71552956  1  0  -0.254925  0  3.332237  0  0  -0.191528  0  3.615249  0  0  -0.206758  0  3.63447  0  0  -0.257575  -0.181221  0  3.601993  0
N  N30  1  0.98280453  0.59940913  0.28446619  1  0  -0.323212  0  3.030469  0  0  -0.283797  0  3.298316  0  0  -0.29861  0  3.313937  0  0  -0.242581  -0.273689  0  3.287555  0
N  N31  1  0.51719457  0.71553532  0.40059398  1  0  -0.323097  0  3.030441  0  0  -0.283707  0  3.298251  0  0  -0.298513  0  3.313869  0  0  -0.242599  -0.273602  0  3.287494  0
N  N32  1  0.01720236  0.40059358  0.71553848  1  0  -0.323171  0  3.030357  0  0  -0.283788  0  3.298195  0  0  -0.2986  0  3.313813  0  0  -0.242587  -0.273681  0  3.287439  0
N  N33  1  0.48280361  0.28446485  0.59940522  1  0  -0.323156  0  3.03039  0  0  -0.283746  0  3.298188  0  0  -0.298554  0  3.313803  0  0  -0.242617  -0.273641  0  3.287436  0
N  N34  1  0.17153217  0.38304851  0.38425607  1  0  -0.651122  0  3.209309  0  0  -0.614641  0  3.459305  0  0  -0.636023  0  3.457726  0  0  -0.57974  -0.599792  0  3.460133  0
N  N35  1  0.32846094  0.61573739  0.61695601  1  0  -0.651026  0  3.209149  0  0  -0.61453  0  3.459136  0  0  -0.635916  0  3.457554  0  0  -0.579757  -0.599682  0  3.459962  0
N  N36  1  0.82846970  0.61695413  0.61574264  1  0  -0.650994  0  3.209394  0  0  -0.614514  0  3.459349  0  0  -0.635897  0  3.457774  0  0  -0.57972  -0.599662  0  3.46017  0
N  N37  1  0.67153481  0.38426030  0.38304362  1  0  -0.651041  0  3.209185  0  0  -0.614575  0  3.459144  0  0  -0.635959  0  3.457567  0  0  -0.579779  -0.599726  0  3.459969  0
