# generated using pymatgen
data_CdH5C5N3(ClO)2
_symmetry_space_group_name_H-M   'P 1'
_cell_length_a   6.98449486
_cell_length_b   7.59330799
_cell_length_c   9.79086979
_cell_angle_alpha   100.66848015
_cell_angle_beta   97.85615793
_cell_angle_gamma   114.58159366
_symmetry_Int_Tables_number   1
_chemical_formula_structural   CdH5C5N3(ClO)2
_chemical_formula_sum   'Cd2 H10 C10 N6 Cl4 O4'
_cell_volume   450.57719405
_cell_formula_units_Z   2
loop_
 _symmetry_equiv_pos_site_id
 _symmetry_equiv_pos_as_xyz
  1  'x, y, z'
loop_
 _atom_site_type_symbol
 _atom_site_label
 _atom_site_symmetry_multiplicity
 _atom_site_fract_x
 _atom_site_fract_y
 _atom_site_fract_z
 _atom_site_occupancy
 _atom_site_hle17_bader_spin_density
 _atom_site_hle17_ddec_charge
 _atom_site_hle17_ddec_spin_density
 _atom_site_hle17_ddec_sum_bond_order
 _atom_site_hle17_magmom
 _atom_site_hse06_10hf_bader_spin_density
 _atom_site_hse06_10hf_ddec_charge
 _atom_site_hse06_10hf_ddec_spin_density
 _atom_site_hse06_10hf_ddec_sum_bond_order
 _atom_site_hse06_10hf_magmom
 _atom_site_hse06_bader_spin_density
 _atom_site_hse06_ddec_charge
 _atom_site_hse06_ddec_spin_density
 _atom_site_hse06_ddec_sum_bond_order
 _atom_site_hse06_magmom
 _atom_site_pbe_bader_spin_density
 _atom_site_pbe_cm5_charge
 _atom_site_pbe_ddec_charge
 _atom_site_pbe_ddec_spin_density
 _atom_site_pbe_ddec_sum_bond_order
 _atom_site_pbe_magmom
Cd  Cd0  1  0.73839796  0.51504332  0.92621683  1  0  0.971107  0  1.963109  0  0  0.811862  0  2.425227  0  0  0.858594  0  2.382943  0  0  0.585133  0.778932  0  2.453329  0
Cd  Cd1  1  0.26162018  0.48496990  0.07378853  1  0  0.971173  0  1.962932  0  0  0.811921  0  2.425092  0  0  0.858653  0  2.382807  0  0  0.585179  0.778988  0  2.45321  0
H  H2  1  0.92939002  0.65812785  0.30678165  1  0  0.330151  0  0.933966  0  0  0.307911  0  1.007986  0  0  0.316467  0  1.001246  0  0  0.274038  0.301959  0  1.01288  0
H  H3  1  0.07060741  0.34185667  0.69321801  1  0  0.330134  0  0.934087  0  0  0.307896  0  1.008087  0  0  0.316452  0  1.001349  0  0  0.274046  0.301946  0  1.012975  0
H  H4  1  0.71393003  0.46774017  0.35566029  1  0  0.358772  0  0.892454  0  0  0.336618  0  0.959616  0  0  0.345431  0  0.95262  0  0  0.302382  0.329232  0  0.966509  0
H  H5  1  0.28607178  0.53224747  0.64434223  1  0  0.358657  0  0.892569  0  0  0.336548  0  0.959678  0  0  0.345338  0  0.952691  0  0  0.302341  0.32919  0  0.966535  0
H  H6  1  0.35634145  0.09531255  0.74102259  1  0  0.127237  0  0.978717  0  0  0.131337  0  1.044242  0  0  0.135519  0  1.039859  0  0  0.131123  0.128007  0  1.047688  0
H  H7  1  0.64364805  0.90469530  0.25896918  1  0  0.127336  0  0.978597  0  0  0.131374  0  1.044197  0  0  0.135555  0  1.039816  0  0  0.131162  0.128044  0  1.04764  0
H  H8  1  0.20220112  0.92799174  0.50337008  1  0  0.331262  0  0.809698  0  0  0.315621  0  0.858885  0  0  0.324232  0  0.852125  0  0  0.348283  0.309532  0  0.86401  0
H  H9  1  0.79779304  0.07200139  0.49662223  1  0  0.331256  0  0.809724  0  0  0.315606  0  0.858917  0  0  0.324215  0  0.852159  0  0  0.34833  0.309514  0  0.864041  0
H  H10  1  0.17135732  0.93601310  0.92710519  1  0  0.110872  0  0.973564  0  0  0.112031  0  1.044848  0  0  0.115337  0  1.043902  0  0  0.104416  0.109149  0  1.046571  0
H  H11  1  0.82864320  0.06399658  0.07289194  1  0  0.110828  0  0.97358  0  0  0.112029  0  1.044817  0  0  0.115335  0  1.04387  0  0  0.104382  0.109143  0  1.046543  0
C  C12  1  0.20684285  0.95603077  0.71528964  1  0  0.141126  0  3.573901  0  0  0.095373  0  3.836034  0  0  0.105517  0  3.847337  0  0  0.07112  0.088846  0  3.829031  0
C  C13  1  0.79315124  0.04397442  0.28470936  1  0  0.141097  0  3.573958  0  0  0.095402  0  3.836074  0  0  0.105547  0  3.847375  0  0  0.071142  0.088879  0  3.829056  0
C  C14  1  0.10452313  0.86893711  0.81260222  1  0  0.039533  0  3.696035  0  0  0.0035  0  3.97269  0  0  -0.001503  0  3.993167  0  0  0.029718  0.006446  0  3.959068  0
C  C15  1  0.89547600  0.13106656  0.18739297  1  0  0.039509  0  3.696076  0  0  0.00346  0  3.972686  0  0  -0.001542  0  3.993163  0  0  0.029718  0.006415  0  3.959053  0
C  C16  1  0.93191014  0.68685667  0.52261479  1  0  0.465108  0  3.734868  0  0  0.419429  0  4.004972  0  0  0.441592  0  4.014867  0  0  0.264452  0.404872  0  3.997441  0
C  C17  1  0.06808058  0.31313511  0.47738418  1  0  0.46485  0  3.734917  0  0  0.419287  0  4.004784  0  0  0.441446  0  4.014682  0  0  0.264396  0.404726  0  3.997257  0
C  C18  1  0.83147788  0.60199960  0.62985888  1  0  -0.021614  0  3.646374  0  0  -0.015773  0  3.888013  0  0  -0.021234  0  3.903701  0  0  0.126195  -0.013059  0  3.877591  0
C  C19  1  0.16852425  0.39800727  0.37014211  1  0  -0.02162  0  3.646399  0  0  -0.015638  0  3.88775  0  0  -0.0211  0  3.903439  0  0  0.126167  -0.012923  0  3.877335  0
C  C20  1  0.62929468  0.39997281  0.58910751  1  0  0.618196  0  3.953369  0  0  0.562783  0  4.262593  0  0  0.596917  0  4.25558  0  0  0.191929  0.539655  0  4.266154  0
C  C21  1  0.37071119  0.60003578  0.41089916  1  0  0.618204  0  3.953475  0  0  0.562752  0  4.262692  0  0  0.59689  0  4.255657  0  0  0.191963  0.53962  0  4.266264  0
N  N22  1  0.91985169  0.69405538  0.76717140  1  0  -0.232706  0  3.297198  0  0  -0.17481  0  3.553956  0  0  -0.181244  0  3.572068  0  0  -0.296779  -0.16945  0  3.540018  0
N  N23  1  0.08014542  0.30594391  0.23282711  1  0  -0.232682  0  3.297313  0  0  -0.174873  0  3.554057  0  0  -0.18131  0  3.572174  0  0  -0.296752  -0.169514  0  3.540122  0
N  N24  1  0.85695148  0.59919212  0.38398754  1  0  -0.62551  0  3.161393  0  0  -0.589824  0  3.401373  0  0  -0.613882  0  3.401555  0  0  -0.54688  -0.573448  0  3.40177  0
N  N25  1  0.14304598  0.40079242  0.61601315  1  0  -0.625242  0  3.1616  0  0  -0.589648  0  3.401487  0  0  -0.613676  0  3.401701  0  0  -0.546763  -0.573299  0  3.401833  0
N  N26  1  0.11756350  0.86504650  0.57368076  1  0  -0.294178  0  3.35494  0  0  -0.225477  0  3.585779  0  0  -0.242304  0  3.594657  0  0  -0.343181  -0.214466  0  3.579851  0
N  N27  1  0.88242558  0.13494807  0.42631332  1  0  -0.294115  0  3.355128  0  0  -0.225486  0  3.585964  0  0  -0.242302  0  3.594822  0  0  -0.343296  -0.214477  0  3.580037  0
Cl  Cl28  1  0.07449718  0.74449525  0.13604164  1  0  -0.560806  0  0.985573  0  0  -0.500105  0  1.25174  0  0  -0.51851  0  1.232218  0  0  -0.29072  -0.486717  0  1.264717  0
Cl  Cl29  1  0.92552103  0.25551199  0.86396191  1  0  -0.560794  0  0.985546  0  0  -0.500102  0  1.251711  0  0  -0.518509  0  1.232192  0  0  -0.290724  -0.486704  0  1.264667  0
Cl  Cl30  1  0.50315190  0.29238232  0.06545606  1  0  -0.536873  0  0.995958  0  0  -0.466955  0  1.271598  0  0  -0.486703  0  1.25244  0  0  -0.289188  -0.453031  0  1.286679  0
Cl  Cl31  1  0.49685372  0.70761988  0.93453545  1  0  -0.536877  0  0.995977  0  0  -0.46698  0  1.271662  0  0  -0.486731  0  1.252498  0  0  -0.289195  -0.453052  0  1.286744  0
O  O32  1  0.55102611  0.33967213  0.69116831  1  0  -0.619379  0  2.094637  0  0  -0.557989  0  2.351801  0  0  -0.586709  0  2.342737  0  0  -0.330689  -0.536773  0  2.357289  0
O  O33  1  0.44896982  0.66033356  0.30884626  1  0  -0.619375  0  2.094739  0  0  -0.558002  0  2.351955  0  0  -0.586723  0  2.34288  0  0  -0.330744  -0.536787  0  2.357447  0
O  O34  1  0.55459823  0.30451992  0.45839747  1  0  -0.602321  0  1.897586  0  0  -0.565521  0  2.123441  0  0  -0.587514  0  2.115066  0  0  -0.331339  -0.54968  0  2.129678  0
O  O35  1  0.44539762  0.69547656  0.54160668  1  0  -0.602316  0  1.897578  0  0  -0.565556  0  2.123474  0  0  -0.58754  0  2.115087  0  0  -0.331366  -0.549714  0  2.129711  0
