# generated using pymatgen
data_CuH4C6SN2Cl
_symmetry_space_group_name_H-M   'P 1'
_cell_length_a   3.73048166
_cell_length_b   10.10296802
_cell_length_c   10.10298313
_cell_angle_alpha   73.93736328
_cell_angle_beta   79.21892740
_cell_angle_gamma   79.21979104
_symmetry_Int_Tables_number   1
_chemical_formula_structural   CuH4C6SN2Cl
_chemical_formula_sum   'Cu2 H8 C12 S2 N4 Cl2'
_cell_volume   355.73643327
_cell_formula_units_Z   2
loop_
 _symmetry_equiv_pos_site_id
 _symmetry_equiv_pos_as_xyz
  1  'x, y, z'
loop_
 _atom_site_type_symbol
 _atom_site_label
 _atom_site_symmetry_multiplicity
 _atom_site_fract_x
 _atom_site_fract_y
 _atom_site_fract_z
 _atom_site_occupancy
 _atom_site_hle17_bader_spin_density
 _atom_site_hle17_ddec_charge
 _atom_site_hle17_ddec_spin_density
 _atom_site_hle17_ddec_sum_bond_order
 _atom_site_hle17_magmom
 _atom_site_hse06_10hf_bader_spin_density
 _atom_site_hse06_10hf_ddec_charge
 _atom_site_hse06_10hf_ddec_spin_density
 _atom_site_hse06_10hf_ddec_sum_bond_order
 _atom_site_hse06_10hf_magmom
 _atom_site_hse06_bader_spin_density
 _atom_site_hse06_ddec_charge
 _atom_site_hse06_ddec_spin_density
 _atom_site_hse06_ddec_sum_bond_order
 _atom_site_hse06_magmom
 _atom_site_pbe_bader_spin_density
 _atom_site_pbe_cm5_charge
 _atom_site_pbe_ddec_charge
 _atom_site_pbe_ddec_spin_density
 _atom_site_pbe_ddec_sum_bond_order
 _atom_site_pbe_magmom
Cu  Cu0  1  0.31068957  0.19130356  0.19152449  1  0  0.511411  0  2.021316  0  0  0.40909  0  2.531791  0  0  0.396234  0  2.493252  0  0  0.46163  0.420795  0  2.55614  0
Cu  Cu1  1  0.31076015  0.69151881  0.69129397  1  0  0.511292  0  2.021176  0  0  0.408955  0  2.531671  0  0  0.396225  0  2.49318  0  0  0.461545  0.420679  0  2.556091  0
H  H2  1  0.86252334  0.42719984  0.34157179  1  0  0.107818  0  0.964536  0  0  0.116941  0  1.029766  0  0  0.120935  0  1.02681  0  0  0.105006  0.114452  0  1.031069  0
H  H3  1  0.36560289  0.34245717  0.42807532  1  0  0.108518  0  0.964115  0  0  0.118175  0  1.028574  0  0  0.122096  0  1.025784  0  0  0.105305  0.115605  0  1.030012  0
H  H4  1  0.36567132  0.92806579  0.84246193  1  0  0.108543  0  0.963925  0  0  0.118229  0  1.028353  0  0  0.122161  0  1.025559  0  0  0.105319  0.115661  0  1.029796  0
H  H5  1  0.86260873  0.84156832  0.92719220  1  0  0.107721  0  0.964486  0  0  0.116764  0  1.029815  0  0  0.120755  0  1.026868  0  0  0.104997  0.114277  0  1.031122  0
H  H6  1  0.50116652  0.65471770  0.36057534  1  0  0.095887  0  0.974825  0  0  0.101093  0  1.04394  0  0  0.10467  0  1.04227  0  0  0.088286  0.097937  0  1.046623  0
H  H7  1  0.47678223  0.36140366  0.65554460  1  0  0.094935  0  0.976724  0  0  0.099779  0  1.047055  0  0  0.103484  0  1.045044  0  0  0.088627  0.097617  0  1.047552  0
H  H8  1  0.47683074  0.15553752  0.86141981  1  0  0.094966  0  0.976209  0  0  0.099796  0  1.046577  0  0  0.103489  0  1.044622  0  0  0.088571  0.097612  0  1.047106  0
H  H9  1  0.50120226  0.86058055  0.15471467  1  0  0.095928  0  0.974698  0  0  0.101107  0  1.043815  0  0  0.104683  0  1.042147  0  0  0.088297  0.097956  0  1.046478  0
C  C10  1  0.06335001  0.50408499  0.12245254  1  0  0.1752  0  3.796374  0  0  0.173727  0  4.037778  0  0  0.177196  0  4.058557  0  0  0.099839  0.170954  0  4.023554  0
C  C11  1  0.31065635  0.12312384  0.50471411  1  0  0.174317  0  3.793992  0  0  0.172698  0  4.035312  0  0  0.176121  0  4.056212  0  0  0.099153  0.170281  0  4.021645  0
C  C12  1  0.31066315  0.00470654  0.62313914  1  0  0.174255  0  3.794469  0  0  0.172627  0  4.03581  0  0  0.176051  0  4.056715  0  0  0.099164  0.170196  0  4.022181  0
C  C13  1  0.06338818  0.62245783  0.00407544  1  0  0.175568  0  3.796485  0  0  0.173988  0  4.037969  0  0  0.177543  0  4.058664  0  0  0.09995  0.171137  0  4.023835  0
C  C14  1  0.85865055  0.51648346  0.25193456  1  0  -0.134498  0  3.701307  0  0  -0.15284  0  3.953888  0  0  -0.156573  0  3.971548  0  0  -0.090196  -0.149992  0  3.941607  0
C  C15  1  0.37079129  0.25267617  0.51720681  1  0  -0.135159  0  3.700437  0  0  -0.153762  0  3.952598  0  0  -0.157465  0  3.970345  0  0  -0.090667  -0.151204  0  3.940164  0
C  C16  1  0.37081302  0.01722415  0.75267342  1  0  -0.135134  0  3.701204  0  0  -0.153719  0  3.953265  0  0  -0.157431  0  3.97102  0  0  -0.090628  -0.151153  0  3.940828  0
C  C17  1  0.85872887  0.75191252  0.01648045  1  0  -0.134559  0  3.701387  0  0  -0.152825  0  3.954006  0  0  -0.156581  0  3.971656  0  0  -0.090294  -0.14996  0  3.941752  0
C  C18  1  0.65934226  0.64391591  0.26094534  1  0  -0.032064  0  3.709364  0  0  -0.049427  0  3.960577  0  0  -0.048745  0  3.978667  0  0  -0.082995  -0.050742  0  3.950834  0
C  C19  1  0.43159218  0.26170010  0.64469441  1  0  -0.032293  0  3.712076  0  0  -0.049918  0  3.964556  0  0  -0.049207  0  3.982562  0  0  -0.082855  -0.05037  0  3.951072  0
C  C20  1  0.43161063  0.14468348  0.76168395  1  0  -0.032389  0  3.712516  0  0  -0.05  0  3.965019  0  0  -0.049316  0  3.983045  0  0  -0.082898  -0.050439  0  3.951511  0
C  C21  1  0.65938147  0.76093999  0.14391729  1  0  -0.032036  0  3.708881  0  0  -0.049304  0  3.960033  0  0  -0.048617  0  3.978123  0  0  -0.082927  -0.050619  0  3.950262  0
S  S22  1  0.46299048  0.42898491  0.92899434  1  0  0.48548  0  2.890961  0  0  0.466132  0  3.269474  0  0  0.481127  0  3.267752  0  0  0.377913  0.452629  0  3.275347  0
S  S23  1  0.18378801  0.92957902  0.42956865  1  0  0.484663  0  2.901587  0  0  0.464003  0  3.281065  0  0  0.479306  0  3.279438  0  0  0.377147  0.452034  0  3.282667  0
N  N24  1  0.27740459  0.38803081  0.09330660  1  0  -0.422022  0  3.245687  0  0  -0.370359  0  3.587521  0  0  -0.370441  0  3.583064  0  0  -0.373683  -0.369896  0  3.591645  0
N  N25  1  0.24397752  0.09389303  0.38867329  1  0  -0.421301  0  3.246394  0  0  -0.369371  0  3.588362  0  0  -0.369514  0  3.583962  0  0  -0.372883  -0.368835  0  3.590412  0
N  N26  1  0.24400819  0.88868280  0.59389126  1  0  -0.42117  0  3.246391  0  0  -0.369286  0  3.588381  0  0  -0.369453  0  3.584043  0  0  -0.372804  -0.368772  0  3.590505  0
N  N27  1  0.27744259  0.59330296  0.88802476  1  0  -0.422139  0  3.245276  0  0  -0.3705  0  3.587173  0  0  -0.370639  0  3.582762  0  0  -0.373792  -0.370049  0  3.591399  0
Cl  Cl28  1  0.90547473  0.09682308  0.09904380  1  0  -0.575885  0  1.181967  0  0  -0.51093  0  1.537683  0  0  -0.529054  0  1.514067  0  0  -0.332082  -0.49895  0  1.553522  0
Cl  Cl29  1  0.90553679  0.59904231  0.59679705  1  0  -0.575853  0  1.181859  0  0  -0.510865  0  1.537529  0  0  -0.529041  0  1.513956  0  0  -0.332044  -0.498839  0  1.553398  0
