# generated using pymatgen
data_FeHC2O3
_symmetry_space_group_name_H-M   'P 1'
_cell_length_a   3.37472269
_cell_length_b   8.99276788
_cell_length_c   9.68543352
_cell_angle_alpha   90.00185287
_cell_angle_beta   89.99809201
_cell_angle_gamma   107.61802474
_symmetry_Int_Tables_number   1
_chemical_formula_structural   FeHC2O3
_chemical_formula_sum   'Fe4 H4 C8 O12'
_cell_volume   280.14763289
_cell_formula_units_Z   4
loop_
 _symmetry_equiv_pos_site_id
 _symmetry_equiv_pos_as_xyz
  1  'x, y, z'
loop_
 _atom_site_type_symbol
 _atom_site_label
 _atom_site_symmetry_multiplicity
 _atom_site_fract_x
 _atom_site_fract_y
 _atom_site_fract_z
 _atom_site_occupancy
 _atom_site_pbe_cm5_charge
 _atom_site_pbe_ddec_charge
 _atom_site_pbe_ddec_spin_density
 _atom_site_pbe_ddec_sum_bond_order
 _atom_site_pbe_magmom
Fe  Fe0  1  0.37990216  0.56268488  0.90097932  1  0.631138  0.940615  3.821811  2.581618  3.582
Fe  Fe1  1  0.62015090  0.93731002  0.40099391  1  0.63112  0.940505  3.821974  2.581295  3.582
Fe  Fe2  1  0.62011865  0.43733408  0.09901215  1  0.631149  0.94065  3.822063  2.581418  3.582
Fe  Fe3  1  0.37985604  0.06265713  0.59899343  1  0.631057  0.940463  3.821875  2.581496  3.582
H  H4  1  0.34279269  0.68047880  0.15071685  1  0.292983  0.398155  0.002566  0.934098  0.007
H  H5  1  0.65715871  0.81951231  0.65073051  1  0.29296  0.398156  0.002567  0.934058  0.007
H  H6  1  0.65721958  0.31952620  0.84927875  1  0.292991  0.398226  0.002566  0.933955  0.007
H  H7  1  0.34279981  0.18045342  0.34928471  1  0.292992  0.398151  0.002565  0.934151  0.007
C  C8  1  0.17198536  0.55382136  0.58559175  1  0.109091  0.167831  0.005287  4.110523  0.009
C  C9  1  0.82796307  0.94615427  0.08562190  1  0.109231  0.168282  0.005288  4.11103  0.009
C  C10  1  0.82800929  0.44616942  0.41440488  1  0.109101  0.167902  0.005288  4.110365  0.009
C  C11  1  0.17200059  0.05385388  0.91438816  1  0.109169  0.168147  0.005291  4.110638  0.009
C  C12  1  0.05500944  0.60815220  0.45245865  1  0.107477  0.173815  0.001086  4.08575  0.004
C  C13  1  0.94495045  0.89186986  0.95244337  1  0.107381  0.173407  0.001071  4.085905  0.004
C  C14  1  0.94498949  0.39182614  0.54754727  1  0.107605  0.174054  0.001084  4.085802  0.004
C  C15  1  0.05501642  0.10815323  0.04757185  1  0.107393  0.173394  0.001071  4.086171  0.004
O  O16  1  0.23677840  0.57543444  0.10758306  1  -0.575268  -0.864088  0.107034  2.34539  0.168
O  O17  1  0.76320245  0.92458155  0.60759661  1  -0.575137  -0.863903  0.107044  2.345384  0.168
O  O18  1  0.76329315  0.42458488  0.89243319  1  -0.57531  -0.864122  0.107028  2.345203  0.168
O  O19  1  0.23677688  0.07543277  0.39239796  1  -0.575263  -0.864029  0.107019  2.34532  0.168
O  O20  1  0.38354813  0.62194458  0.68735643  1  -0.278705  -0.404563  0.02543  2.483507  0.037
O  O21  1  0.61643817  0.87802910  0.18735456  1  -0.278612  -0.40439  0.025426  2.484272  0.037
O  O22  1  0.61643673  0.37804477  0.31263607  1  -0.278583  -0.404415  0.025435  2.483202  0.037
O  O23  1  0.38355345  0.12198101  0.81264104  1  -0.278531  -0.404343  0.025424  2.483613  0.037
O  O24  1  0.11512975  0.73878268  0.39417395  1  -0.286881  -0.412053  0.036684  2.487049  0.054
O  O25  1  0.88479254  0.76123104  0.89415095  1  -0.286935  -0.41202  0.036693  2.487139  0.054
O  O26  1  0.88489784  0.26121821  0.60582062  1  -0.286801  -0.411973  0.036663  2.487568  0.054
O  O27  1  0.11518786  0.23877531  0.10584568  1  -0.286812  -0.411857  0.036675  2.487736  0.054
