# generated using pymatgen
data_CoH14C10(N4O)2
_symmetry_space_group_name_H-M   'P 1'
_cell_length_a   7.39223198
_cell_length_b   7.56078508
_cell_length_c   7.95723090
_cell_angle_alpha   108.64641728
_cell_angle_beta   90.14482683
_cell_angle_gamma   118.91304949
_symmetry_Int_Tables_number   1
_chemical_formula_structural   CoH14C10(N4O)2
_chemical_formula_sum   'Co1 H14 C10 N8 O2'
_cell_volume   362.19064236
_cell_formula_units_Z   1
loop_
 _symmetry_equiv_pos_site_id
 _symmetry_equiv_pos_as_xyz
  1  'x, y, z'
loop_
 _atom_site_type_symbol
 _atom_site_label
 _atom_site_symmetry_multiplicity
 _atom_site_fract_x
 _atom_site_fract_y
 _atom_site_fract_z
 _atom_site_occupancy
 _atom_site_pbe_bader_charge
 _atom_site_pbe_bader_spin_density
 _atom_site_pbe_cm5_charge
 _atom_site_pbe_ddec_charge
 _atom_site_pbe_ddec_spin_density
 _atom_site_pbe_ddec_sum_bond_order
 _atom_site_pbe_magmom
Co  Co0  1  0.17699382  0.00008519  0.49995778  1  1.332004  2.58685  0.725693  1.035219  2.796023  2.588023  2.572
H  H1  1  0.94693527  0.53893595  0.24136028  1  0.133818  0.001704  0.120335  0.043449  0.0004  1.065727  0.001
H  H2  1  0.40774121  0.46126759  0.75875345  1  0.140014  0.001702  0.120565  0.043906  0.000398  1.065684  0.001
H  H3  1  0.78944549  0.22325332  0.02629684  1  0.096107  6.5e-05  0.107304  0.123421  2.2e-05  1.020699  0.0
H  H4  1  0.56542619  0.77678966  0.97396962  1  0.084992  6.6e-05  0.107262  0.123075  2.2e-05  1.021218  0.0
H  H5  1  0.90362688  0.21125109  0.82780134  1  0.067005  0.000526  0.103528  0.122503  8.7e-05  1.010843  0.0
H  H6  1  0.69041728  0.78742514  0.17280664  1  0.066518  0.000469  0.103195  0.122075  9.6e-05  1.012126  0.0
H  H7  1  0.66179173  0.21138630  0.82818029  1  0.030713  0.000489  0.102574  0.120942  9.8e-05  1.012346  0.0
H  H8  1  0.44966386  0.78968989  0.17158828  1  0.04583  0.000539  0.103228  0.122464  8.9e-05  1.01118  0.0
H  H9  1  0.06525252  0.78802388  0.90527273  1  0.166777  0.000416  0.1145  0.144179  0.000159  0.992821  0.0
H  H10  1  0.27832962  0.21179448  0.09455072  1  0.105602  0.000438  0.114427  0.143909  0.000158  0.993309  0.0
H  H11  1  0.83406205  0.55673385  0.75182478  1  0.051942  0.000402  0.102649  0.118821  0.000141  1.014106  0.0
H  H12  1  0.27601028  0.44303923  0.24709967  1  0.052217  0.000365  0.102942  0.119398  0.000125  1.014382  0.0
H  H13  1  0.07746729  0.56229468  0.75461514  1  0.057417  0.000371  0.102845  0.119781  0.000124  1.012066  0.0
H  H14  1  0.51381923  0.43743113  0.24632620  1  0.05964  0.000409  0.102899  0.120007  0.000142  1.011888  0.0
C  C15  1  0.94532061  0.22717691  0.42444103  1  1.528406  0.005354  0.310754  0.448003  0.001019  4.247915  0.007
C  C16  1  0.71797550  0.77470287  0.57775374  1  1.538344  0.005115  0.310583  0.449278  0.000885  4.245102  0.007
C  C17  1  0.63580353  0.22502101  0.42185650  1  1.520224  0.00501  0.309255  0.447078  0.000827  4.247222  0.007
C  C18  1  0.40882364  0.77334265  0.57584167  1  1.515323  0.005347  0.31003  0.44718  0.001004  4.248584  0.007
C  C19  1  0.99264653  0.63226563  0.15152691  1  1.309732  -0.000938  0.170248  0.285098  -0.001401  4.087909  -0.001
C  C20  1  0.36054464  0.36779853  0.84846941  1  1.299248  -0.000946  0.170021  0.284588  -0.001412  4.089088  -0.001
C  C21  1  0.81498774  0.27584861  0.91071557  1  0.254426  0.0011  -0.135485  -0.283222  0.000667  3.887466  0.001
C  C22  1  0.53810498  0.72409855  0.08947746  1  0.303235  0.001075  -0.135644  -0.283719  0.000667  3.88798  0.001
C  C23  1  0.98037195  0.61124562  0.83928383  1  0.212141  0.000648  -0.135984  -0.269237  0.000319  3.856012  0.0
C  C24  1  0.36858104  0.38852882  0.16060212  1  0.266525  0.000631  -0.136638  -0.270289  0.000321  3.856439  0.0
N  N25  1  0.08049228  0.20442391  0.47415259  1  -1.24613  0.052548  -0.37925  -0.559514  0.028095  3.227585  0.039
N  N26  1  0.87674139  0.79901450  0.53052053  1  -1.248834  0.050156  -0.37575  -0.558786  0.026657  3.218775  0.038
N  N27  1  0.80691521  0.25843624  0.35946377  1  -1.308663  0.014708  -0.305379  -0.388861  0.007071  3.538243  0.012
N  N28  1  0.54708640  0.74167740  0.64046023  1  -1.315269  0.014797  -0.305513  -0.389215  0.007117  3.540137  0.012
N  N29  1  0.47694751  0.20075965  0.46886852  1  -1.242345  0.050203  -0.375174  -0.557784  0.026702  3.219172  0.038
N  N30  1  0.27363715  0.79618684  0.52626021  1  -1.237356  0.052643  -0.379015  -0.559659  0.028154  3.226172  0.039
N  N31  1  0.93215731  0.51220758  0.97517833  1  -1.174933  0.00959  -0.279745  0.040099  0.004786  3.712746  0.008
N  N32  1  0.41937273  0.48774461  0.02484046  1  -1.218758  0.009642  -0.279436  0.040686  0.004793  3.711538  0.008
O  O33  1  0.09461607  0.83701685  0.21365300  1  -1.12274  0.064251  -0.295873  -0.472425  0.032823  2.388061  0.055
O  O34  1  0.25856063  0.16307360  0.78626393  1  -1.123172  0.064255  -0.295949  -0.472451  0.032822  2.389283  0.055
