# generated using pymatgen
data_CrH5C8O5
_symmetry_space_group_name_H-M   'P 1'
_cell_length_a   6.89196038
_cell_length_b   11.24786368
_cell_length_c   11.24789290
_cell_angle_alpha   84.83602410
_cell_angle_beta   72.15637393
_cell_angle_gamma   72.15606834
_symmetry_Int_Tables_number   1
_chemical_formula_structural   CrH5C8O5
_chemical_formula_sum   'Cr2 H10 C16 O10'
_cell_volume   790.05726636
_cell_formula_units_Z   2
loop_
 _symmetry_equiv_pos_site_id
 _symmetry_equiv_pos_as_xyz
  1  'x, y, z'
loop_
 _atom_site_type_symbol
 _atom_site_label
 _atom_site_symmetry_multiplicity
 _atom_site_fract_x
 _atom_site_fract_y
 _atom_site_fract_z
 _atom_site_occupancy
 _atom_site_pbe_bader_charge
 _atom_site_pbe_bader_spin_density
 _atom_site_pbe_cm5_charge
 _atom_site_pbe_ddec_charge
 _atom_site_pbe_ddec_spin_density
 _atom_site_pbe_ddec_sum_bond_order
 _atom_site_pbe_magmom
Cr  Cr0  1  0.99999861  0.50000207  0.50000121  1  1.808753  2.73774  1.041015  1.574895  2.836508  2.702967  2.77
Cr  Cr1  1  0.50000540  0.50000087  0.49999833  1  1.820821  2.736771  1.041217  1.575248  2.836452  2.704221  2.77
H  H2  1  0.25051162  0.11715450  0.50513014  1  0.089052  0.000268  0.107002  0.111796  -0.000107  1.003857  0.0
H  H3  1  0.37386016  0.37617610  0.37617257  1  0.611823  0.009439  0.325613  0.43026  0.00499  0.851722  0.008
H  H4  1  0.62720178  0.50521397  0.11735927  1  0.097983  0.000264  0.106994  0.111947  -0.000106  1.005455  0.0
H  H5  1  0.37279855  0.88263973  0.49478387  1  0.097977  0.000264  0.106998  0.111961  -0.000106  1.005438  0.0
H  H6  1  0.62613874  0.62382196  0.62382758  1  0.611822  0.009438  0.325626  0.430299  0.004988  0.851675  0.008
H  H7  1  0.74948857  0.49486819  0.88284375  1  0.089033  0.000268  0.107017  0.11181  -0.000107  1.003828  0.0
H  H8  1  0.74948683  0.88284448  0.49486911  1  0.089023  0.000268  0.107006  0.111786  -0.000107  1.003851  0.0
H  H9  1  0.37280277  0.49478499  0.88263884  1  0.097924  0.000264  0.106972  0.111951  -0.000106  1.005434  0.0
H  H10  1  0.62720143  0.11735925  0.50521510  1  0.097977  0.000264  0.107003  0.111959  -0.000106  1.005448  0.0
H  H11  1  0.25051446  0.50513078  0.11715464  1  0.089016  0.000268  0.106996  0.11178  -0.000107  1.003843  0.0
C  C12  1  0.14237498  0.06482335  0.50262758  1  -0.104346  0.00442  -0.080262  -0.092112  0.003189  3.967744  0.002
C  C13  1  0.79014901  0.50269275  0.06492991  1  0.016406  0.00442  -0.08048  -0.093229  0.003209  3.969455  0.002
C  C14  1  0.20985223  0.93506911  0.49730817  1  0.016098  0.004421  -0.080458  -0.093193  0.00321  3.969315  0.002
C  C15  1  0.85762740  0.49737135  0.93517586  1  -0.104394  0.00442  -0.080253  -0.092092  0.003189  3.967835  0.002
C  C16  1  0.85762301  0.93517657  0.49737166  1  -0.104363  0.004421  -0.080266  -0.092101  0.00319  3.967833  0.002
C  C17  1  0.20985812  0.49730715  0.93506851  1  0.016292  0.004419  -0.080433  -0.09319  0.003208  3.969271  0.002
C  C18  1  0.79014774  0.06492988  0.50269168  1  0.01639  0.00442  -0.080471  -0.093203  0.003209  3.969356  0.002
C  C19  1  0.14237728  0.50263044  0.06482372  1  -0.104343  0.00442  -0.080252  -0.092086  0.003189  3.967704  0.002
C  C20  1  0.93210237  0.13062044  0.50530789  1  -0.000722  -0.00147  -0.01076  -0.027202  -0.003196  3.953259  -0.003
C  C21  1  0.86121612  0.27007395  0.50756817  1  1.55654  0.027705  0.236423  0.627939  0.023561  4.109169  0.024
C  C22  1  0.93210310  0.50530833  0.13062092  1  -0.000638  -0.001472  -0.010723  -0.027188  -0.003198  3.953273  -0.003
C  C23  1  0.86120808  0.50756725  0.27007649  1  1.556822  0.027705  0.236404  0.627912  0.023563  4.109151  0.024
C  C24  1  0.06789453  0.86937858  0.49469431  1  -0.000347  -0.001472  -0.010717  -0.027232  -0.003198  3.953351  -0.003
C  C25  1  0.13878124  0.72992414  0.49243405  1  1.55655  0.027709  0.236453  0.628012  0.023565  4.109089  0.024
C  C26  1  0.06789701  0.49469344  0.86937773  1  -0.000521  -0.001471  -0.010772  -0.027266  -0.003197  3.953273  -0.003
C  C27  1  0.13878639  0.49243361  0.72992331  1  1.556905  0.027701  0.236448  0.628027  0.023558  4.10906  0.024
O  O28  1  0.00026581  0.32342786  0.50730696  1  -1.143141  0.024829  -0.325505  -0.582038  0.010472  2.358376  -0.008
O  O29  1  0.66913279  0.50727840  0.32346193  1  -1.14423  0.024997  -0.323548  -0.579959  0.010625  2.361172  -0.008
O  O30  1  0.33086253  0.67653924  0.49272305  1  -1.144196  0.024993  -0.323581  -0.579981  0.010626  2.360995  -0.008
O  O31  1  0.99972895  0.49269831  0.67657299  1  -1.143489  0.024831  -0.325527  -0.582065  0.010468  2.358404  -0.008
O  O32  1  0.99972602  0.67657215  0.49269876  1  -1.143194  0.024833  -0.325555  -0.582073  0.010469  2.358365  -0.008
O  O33  1  0.33086320  0.49272246  0.67653848  1  -1.144251  0.024989  -0.323599  -0.580031  0.010626  2.361005  -0.008
O  O34  1  0.66913698  0.32346068  0.50727680  1  -1.144214  0.02499  -0.323612  -0.58002  0.010626  2.361049  -0.008
O  O35  1  0.00026473  0.50730722  0.32342737  1  -1.143456  0.024831  -0.32553  -0.582021  0.010471  2.358252  -0.008
O  O36  1  0.69029755  0.55961997  0.55961908  1  -1.161703  0.082457  -0.626457  -0.95968  0.063242  2.213764  0.016
O  O37  1  0.30969948  0.44038185  0.44038281  1  -1.161657  0.082441  -0.626425  -0.959623  0.063234  2.213755  0.016
