# generated using pymatgen
data_CuH10C10Br2(N3O)2
_symmetry_space_group_name_H-M   'P 1'
_cell_length_a   3.81347776
_cell_length_b   6.78039726
_cell_length_c   13.42342408
_cell_angle_alpha   103.00060764
_cell_angle_beta   87.92786604
_cell_angle_gamma   94.92960353
_symmetry_Int_Tables_number   1
_chemical_formula_structural   CuH10C10Br2(N3O)2
_chemical_formula_sum   'Cu1 H10 C10 Br2 N6 O2'
_cell_volume   336.88980514
_cell_formula_units_Z   1
loop_
 _symmetry_equiv_pos_site_id
 _symmetry_equiv_pos_as_xyz
  1  'x, y, z'
loop_
 _atom_site_type_symbol
 _atom_site_label
 _atom_site_symmetry_multiplicity
 _atom_site_fract_x
 _atom_site_fract_y
 _atom_site_fract_z
 _atom_site_occupancy
 _atom_site_hle17_ddec_charge
 _atom_site_hle17_ddec_spin_density
 _atom_site_hle17_ddec_sum_bond_order
 _atom_site_hle17_magmom
 _atom_site_hse06_10hf_ddec_charge
 _atom_site_hse06_10hf_ddec_spin_density
 _atom_site_hse06_10hf_ddec_sum_bond_order
 _atom_site_hse06_10hf_magmom
 _atom_site_hse06_ddec_charge
 _atom_site_hse06_ddec_spin_density
 _atom_site_hse06_ddec_sum_bond_order
 _atom_site_hse06_magmom
 _atom_site_pbe_cm5_charge
 _atom_site_pbe_ddec_charge
 _atom_site_pbe_ddec_spin_density
 _atom_site_pbe_ddec_sum_bond_order
 _atom_site_pbe_magmom
Cu  Cu0  1  0.49999225  0.50000112  0.50000037  1  0.606914  -0.540963  1.994946  -0.394  0.591084  -0.66098  2.381947  -0.516  0.682558  -0.743305  2.311078  -0.608  0.522178  0.544443  -0.611945  2.424246  -0.466
H  H1  1  0.32536931  0.55319086  0.29663360  1  0.099235  -0.001049  0.990081  -0.001  0.102171  -0.001171  1.063014  -0.001  0.107009  -0.000877  1.0571  -0.001  0.106063  0.098598  -0.001416  1.067437  -0.002
H  H2  1  0.67462337  0.44681303  0.70336505  1  0.099299  -0.001059  0.990085  -0.001  0.102271  -0.001171  1.062907  -0.001  0.107106  -0.000877  1.056996  -0.001  0.106107  0.098707  -0.001416  1.067318  -0.002
H  H3  1  0.63033104  0.85368410  0.21842780  1  0.105419  -0.000552  0.921469  -0.001  0.112595  -0.000637  0.982094  -0.001  0.116078  -0.000457  0.979941  0.0  0.122789  0.110082  -0.000796  0.983762  -0.001
H  H4  1  0.36968452  0.14631391  0.78157151  1  0.105343  -0.000551  0.921628  -0.001  0.112545  -0.000637  0.982222  -0.001  0.116026  -0.000457  0.980072  0.0  0.122767  0.110033  -0.000796  0.98389  -0.001
H  H5  1  0.63262157  0.05940905  0.39923923  1  0.09852  -0.001256  0.987338  -0.001  0.103765  -0.001411  1.055856  -0.001  0.108992  -0.001099  1.049196  -0.001  0.098719  0.099929  -0.001667  1.060571  -0.001
H  H6  1  0.36735790  0.94059322  0.60075781  1  0.098564  -0.001258  0.987224  -0.001  0.103811  -0.001411  1.055743  -0.001  0.109043  -0.0011  1.04908  -0.001  0.098727  0.099975  -0.001668  1.06046  -0.001
H  H7  1  0.10815597  0.32861379  0.95037515  1  0.346836  -3.1e-05  0.918177  0.0  0.326759  -4.2e-05  0.980502  0.0  0.336469  -2.9e-05  0.972226  0.0  0.297323  0.319888  -5.5e-05  0.986321  0.0
H  H8  1  0.89184452  0.67138870  0.04962180  1  0.346727  -3.3e-05  0.918427  0.0  0.326798  -4.3e-05  0.980536  0.0  0.336491  -2.9e-05  0.972283  0.0  0.297337  0.319931  -5.5e-05  0.986354  0.0
H  H9  1  0.33689653  0.13277529  0.98208030  1  0.321542  1.2e-05  0.922733  0.0  0.29053  2e-06  1.013779  0.0  0.299635  1.2e-05  1.0051  0.0  0.296488  0.28404  -1.3e-05  1.019963  0.0
H  H10  1  0.66312710  0.86722288  0.01791601  1  0.321607  8e-06  0.922662  0.0  0.290604  2e-06  1.013698  0.0  0.299704  1.2e-05  1.005025  0.0  0.296529  0.284114  -1.3e-05  1.019883  0.0
C  C11  1  0.39152940  0.39627422  0.27946149  1  0.086709  0.009969  3.634748  0.008  0.046691  0.002496  3.884512  0.002  0.054278  0.004691  3.900891  0.004  0.054368  0.041318  0.000633  3.875405  0.001
C  C12  1  0.60845995  0.60372355  0.72053720  1  0.086578  0.010008  3.635049  0.008  0.046577  0.002497  3.884879  0.002  0.054174  0.004692  3.901251  0.004  0.054232  0.04117  0.000633  3.875823  0.001
C  C13  1  0.36706081  0.27678366  0.18020878  1  0.052756  -0.00835  3.735466  -0.009  0.064345  -0.004429  3.978612  -0.005  0.060092  -0.004101  3.997293  -0.005  0.11812  0.066723  -0.004497  3.966204  -0.005
C  C14  1  0.63292968  0.72322184  0.81978560  1  0.052652  -0.008341  3.735587  -0.009  0.06421  -0.004423  3.978822  -0.005  0.059941  -0.0041  3.997525  -0.005  0.118134  0.066598  -0.004498  3.966396  -0.005
C  C15  1  0.55698680  0.00997589  0.23511627  1  0.079472  -0.008883  3.647548  -0.009  0.056294  -0.004518  3.906731  -0.005  0.056483  -0.004282  3.921087  -0.005  0.053848  0.055808  -0.004499  3.897217  -0.005
C  C16  1  0.44302389  0.99002803  0.76488825  1  0.079644  -0.008899  3.647706  -0.009  0.056426  -0.004516  3.906918  -0.005  0.056616  -0.004281  3.921276  -0.005  0.0539  0.055954  -0.004499  3.897373  -0.005
C  C17  1  0.56265317  0.12379297  0.33591551  1  0.09616  0.009275  3.620451  0.008  0.066054  0.00167  3.870049  0.002  0.074184  0.003954  3.884634  0.003  0.052617  0.061115  -0.000287  3.860792  0.0
C  C18  1  0.43734143  0.87620776  0.66408872  1  0.096064  0.009281  3.620214  0.008  0.065947  0.001669  3.86983  0.002  0.074073  0.003956  3.884421  0.003  0.052631  0.061012  -0.000287  3.860564  0.0
C  C19  1  0.21850257  0.37011790  0.10090628  1  0.586779  -0.00049  3.866922  0.0  0.536098  -0.000598  4.154608  -0.001  0.565275  -0.00038  4.155349  0.0  0.240586  0.516641  -0.000806  4.153258  -0.001
C  C20  1  0.78150509  0.62988148  0.89909622  1  0.586874  -0.000496  3.866487  0.0  0.536125  -0.0006  4.154361  -0.001  0.565306  -0.000381  4.155097  0.0  0.240613  0.516669  -0.000807  4.152996  -0.001
Br  Br21  1  0.93125870  0.73664797  0.44198191  1  -0.433392  -0.172405  1.160793  -0.174  -0.443769  -0.112351  1.49601  -0.117  -0.482699  -0.085078  1.470448  -0.095  -0.222647  -0.420565  -0.128159  1.514385  -0.128
Br  Br22  1  0.06874113  0.26335134  0.55801988  1  -0.433436  -0.172401  1.16082  -0.174  -0.443792  -0.112355  1.495991  -0.117  -0.482707  -0.085083  1.4704  -0.095  -0.222661  -0.42058  -0.128165  1.514358  -0.128
N  N23  1  0.48707273  0.31907133  0.35697515  1  -0.236754  -0.062547  3.362994  -0.081  -0.173175  -0.050936  3.635438  -0.069  -0.201971  -0.04477  3.661008  -0.065  -0.330492  -0.15795  -0.053182  3.621454  -0.069
N  N24  1  0.51292147  0.68092488  0.64302705  1  -0.236749  -0.062554  3.36313  -0.081  -0.173155  -0.050939  3.63556  -0.069  -0.201952  -0.044773  3.661134  -0.065  -0.330504  -0.157921  -0.053186  3.621565  -0.069
N  N25  1  0.45956325  0.08478459  0.15679942  1  -0.2691  0.008051  3.057612  0.008  -0.234488  0.003141  3.314371  0.003  -0.23865  0.004605  3.3284  0.004  -0.287647  -0.231222  0.001737  3.304987  0.002
N  N26  1  0.54043438  0.91521778  0.84320126  1  -0.26907  0.008054  3.057963  0.008  -0.234435  0.003134  3.314748  0.003  -0.238592  0.004602  3.328781  0.004  -0.287652  -0.231169  0.001737  3.305354  0.002
N  N27  1  0.21819788  0.26526612  0.00421712  1  -0.654623  -0.000737  3.123761  -0.001  -0.615795  -0.000443  3.366777  -0.001  -0.639801  -0.000333  3.360813  0.0  -0.557021  -0.599197  -0.000528  3.370611  -0.001
N  N28  1  0.78181014  0.73473486  0.99578259  1  -0.654515  -0.000726  3.123963  -0.001  -0.615824  -0.000442  3.366885  -0.001  -0.639812  -0.000333  3.360941  0.0  -0.557018  -0.599231  -0.000528  3.370724  -0.001
O  O29  1  0.09105733  0.53869549  0.13054282  1  -0.582997  -0.000538  1.926829  -0.001  -0.533665  -0.000279  2.146823  0.0  -0.556708  -0.0002  2.141211  0.0  -0.304218  -0.517472  -0.000485  2.149907  -0.001
O  O30  1  0.90893648  0.46129620  0.86945736  1  -0.583057  -0.000538  1.926505  -0.001  -0.533601  -0.000279  2.146583  0.0  -0.556641  -0.000201  2.140954  0.0  -0.304216  -0.517439  -0.000485  2.149741  -0.001
