# generated using pymatgen
data_CdH6C6I2N2O
_symmetry_space_group_name_H-M   'P 1'
_cell_length_a   7.88174553
_cell_length_b   8.03127496
_cell_length_c   9.08575658
_cell_angle_alpha   105.99372865
_cell_angle_beta   97.63250038
_cell_angle_gamma   102.13660805
_symmetry_Int_Tables_number   1
_chemical_formula_structural   CdH6C6I2N2O
_chemical_formula_sum   'Cd2 H12 C12 I4 N4 O2'
_cell_volume   529.26295810
_cell_formula_units_Z   2
loop_
 _symmetry_equiv_pos_site_id
 _symmetry_equiv_pos_as_xyz
  1  'x, y, z'
loop_
 _atom_site_type_symbol
 _atom_site_label
 _atom_site_symmetry_multiplicity
 _atom_site_fract_x
 _atom_site_fract_y
 _atom_site_fract_z
 _atom_site_occupancy
 _atom_site_hle17_bader_spin_density
 _atom_site_hle17_ddec_charge
 _atom_site_hle17_ddec_spin_density
 _atom_site_hle17_ddec_sum_bond_order
 _atom_site_hle17_magmom
 _atom_site_hse06_10hf_bader_spin_density
 _atom_site_hse06_10hf_ddec_charge
 _atom_site_hse06_10hf_ddec_spin_density
 _atom_site_hse06_10hf_ddec_sum_bond_order
 _atom_site_hse06_10hf_magmom
 _atom_site_hse06_bader_spin_density
 _atom_site_hse06_ddec_charge
 _atom_site_hse06_ddec_spin_density
 _atom_site_hse06_ddec_sum_bond_order
 _atom_site_hse06_magmom
 _atom_site_pbe_bader_spin_density
 _atom_site_pbe_cm5_charge
 _atom_site_pbe_ddec_charge
 _atom_site_pbe_ddec_spin_density
 _atom_site_pbe_ddec_sum_bond_order
 _atom_site_pbe_magmom
Cd  Cd0  1  0.20969461  0.42987902  0.41813497  1  0  0.784653  0  2.073876  0  0  0.640617  0  2.512434  0  0  0.691071  0  2.476255  0  0  0.470375  0.606104  0  2.53594  0
Cd  Cd1  1  0.79030539  0.57012130  0.58186403  1  0  0.784647  0  2.073858  0  0  0.64062  0  2.51241  0  0  0.691071  0  2.476232  0  0  0.470376  0.606105  0  2.535918  0
H  H2  1  0.19779413  0.02090942  0.83531395  1  0  0.100205  0  0.989272  0  0  0.109218  0  1.056468  0  0  0.113126  0  1.054005  0  0  0.092612  0.106394  0  1.058362  0
H  H3  1  0.80220330  0.97909086  0.16468474  1  0  0.100218  0  0.989276  0  0  0.109236  0  1.056455  0  0  0.113145  0  1.053991  0  0  0.092624  0.106411  0  1.058352  0
H  H4  1  0.31720892  0.78660690  0.90478372  1  0  0.102382  0  0.935854  0  0  0.109442  0  1.00095  0  0  0.11298  0  0.998465  0  0  0.10227  0.106865  0  1.002782  0
H  H5  1  0.68279237  0.21339346  0.09521433  1  0  0.102325  0  0.935972  0  0  0.109414  0  1.001043  0  0  0.112945  0  0.998567  0  0  0.102247  0.106836  0  1.002876  0
H  H6  1  0.38901455  0.80598195  0.19033274  1  0  0.107715  0  0.983603  0  0  0.116433  0  1.04668  0  0  0.120287  0  1.044504  0  0  0.088821  0.113677  0  1.048298  0
H  H7  1  0.61098802  0.19401843  0.80966657  1  0  0.107705  0  0.983653  0  0  0.116417  0  1.046736  0  0  0.120268  0  1.044564  0  0  0.088824  0.11366  0  1.048354  0
H  H8  1  0.34008458  0.06657700  0.39077264  1  0  0.075074  0  0.966913  0  0  0.078461  0  1.04159  0  0  0.081713  0  1.038156  0  0  0.095682  0.076052  0  1.04413  0
H  H9  1  0.65991510  0.93342198  0.60922598  1  0  0.075032  0  0.966909  0  0  0.078442  0  1.041579  0  0  0.081695  0  1.038143  0  0  0.095678  0.076033  0  1.04412  0
H  H10  1  0.14389247  0.24926874  0.81454672  1  0  0.329896  0  0.902809  0  0  0.310513  0  0.971012  0  0  0.318625  0  0.963647  0  0  0.292696  0.304778  0  0.97627  0
H  H11  1  0.85610721  0.75073023  0.18545300  1  0  0.329919  0  0.902787  0  0  0.310529  0  0.97101  0  0  0.318644  0  0.963642  0  0  0.292702  0.304794  0  0.97627  0
H  H12  1  0.03334986  0.41515846  0.87712414  1  0  0.351962  0  0.904177  0  0  0.332282  0  0.965483  0  0  0.341743  0  0.957397  0  0  0.299242  0.325576  0  0.971272  0
H  H13  1  0.96665045  0.58484318  0.12287742  1  0  0.352043  0  0.904044  0  0  0.332319  0  0.965416  0  0  0.341794  0  0.957307  0  0  0.299235  0.325586  0  0.971247  0
C  C14  1  0.20393285  0.16850615  0.07676064  1  0  0.090882  0  3.756257  0  0  0.098172  0  3.990568  0  0  0.098971  0  4.012452  0  0  0.10785  0.09744  0  3.97606  0
C  C15  1  0.79606521  0.83149146  0.92323855  1  0  0.090931  0  3.756204  0  0  0.098211  0  3.990514  0  0  0.099016  0  4.01239  0  0  0.107873  0.097467  0  3.97602  0
C  C16  1  0.23111114  0.03033945  0.95811541  1  0  -0.116049  0  3.701546  0  0  -0.139817  0  3.947053  0  0  -0.14511  0  3.968608  0  0  -0.081755  -0.136356  0  3.932784  0
C  C17  1  0.76888756  0.96966084  0.04188452  1  0  -0.116037  0  3.701569  0  0  -0.139802  0  3.947089  0  0  -0.145097  0  3.968641  0  0  -0.081735  -0.136338  0  3.932823  0
C  C18  1  0.29812460  0.89700443  0.99703525  1  0  0.006086  0  3.694614  0  0  -0.009871  0  3.942317  0  0  -0.007433  0  3.960225  0  0  -0.064384  -0.011276  0  3.930121  0
C  C19  1  0.70187378  0.10299452  0.00296432  1  0  0.006048  0  3.694744  0  0  -0.009942  0  3.942461  0  0  -0.007501  0  3.960363  0  0  -0.064406  -0.011345  0  3.930262  0
C  C20  1  0.33728847  0.90702506  0.15359548  1  0  -0.089816  0  3.677562  0  0  -0.102407  0  3.922111  0  0  -0.10763  0  3.940936  0  0  -0.078052  -0.099037  0  3.909457  0
C  C21  1  0.66271153  0.09297527  0.84640242  1  0  -0.089719  0  3.677461  0  0  -0.102309  0  3.922036  0  0  -0.107528  0  3.940861  0  0  -0.078017  -0.098938  0  3.909379  0
C  C22  1  0.30943190  0.05114995  0.26619261  1  0  0.141472  0  3.684191  0  0  0.109071  0  3.940046  0  0  0.116031  0  3.957112  0  0  0.046651  0.10453  0  3.928483  0
C  C23  1  0.69056745  0.94884768  0.73380673  1  0  0.141516  0  3.684102  0  0  0.10908  0  3.939974  0  0  0.116043  0  3.957027  0  0  0.046653  0.104539  0  3.928408  0
C  C24  1  0.12232729  0.31182426  0.04590667  1  0  0.588503  0  3.823756  0  0  0.536738  0  4.107236  0  0  0.566799  0  4.106602  0  0  0.242159  0.516508  0  4.107017  0
C  C25  1  0.87767527  0.68817607  0.95409593  1  0  0.588508  0  3.823885  0  0  0.536767  0  4.107335  0  0  0.56682  0  4.106709  0  0  0.242184  0.516541  0  4.107115  0
I  I26  1  0.13172542  0.77176388  0.52564366  1  0  -0.434746  0  1.17122  0  0  -0.381604  0  1.509984  0  0  -0.403795  0  1.488593  0  0  -0.199966  -0.366075  0  1.523725  0
I  I27  1  0.86827457  0.22823643  0.47435643  1  0  -0.434731  0  1.1712  0  0  -0.381593  0  1.509969  0  0  -0.403784  0  1.488574  0  0  -0.199963  -0.366062  0  1.523709  0
I  I28  1  0.42938579  0.40211816  0.68345597  1  0  -0.491054  0  1.143104  0  0  -0.440966  0  1.464898  0  0  -0.462011  0  1.443732  0  0  -0.229037  -0.426189  0  1.478594  0
I  I29  1  0.57061227  0.59787945  0.31654322  1  0  -0.491037  0  1.143086  0  0  -0.440977  0  1.464922  0  0  -0.46202  0  1.443753  0  0  -0.229035  -0.426199  0  1.478618  0
N  N30  1  0.24333277  0.17767461  0.22823376  1  0  -0.321502  0  3.308626  0  0  -0.249299  0  3.554077  0  0  -0.26858  0  3.577335  0  0  -0.328036  -0.236236  0  3.538127  0
N  N31  1  0.75666561  0.82232432  0.77176690  1  0  -0.321572  0  3.308566  0  0  -0.249354  0  3.554032  0  0  -0.268636  0  3.577287  0  0  -0.32808  -0.236287  0  3.538085  0
N  N32  1  0.09388056  0.32053044  0.90117870  1  0  -0.652851  0  3.146847  0  0  -0.612139  0  3.380469  0  0  -0.635063  0  3.375221  0  0  -0.556831  -0.596475  0  3.383961  0
N  N33  1  0.90612169  0.67946859  0.09882023  1  0  -0.652921  0  3.146881  0  0  -0.612187  0  3.380513  0  0  -0.635123  0  3.37524  0  0  -0.556825  -0.596501  0  3.384048  0
O  O34  1  0.07672651  0.41677147  0.15606889  1  0  -0.572851  0  2.056266  0  0  -0.504844  0  2.289474  0  0  -0.531728  0  2.28321  0  0  -0.300296  -0.486272  0  2.293115  0
O  O35  1  0.92327508  0.58323019  0.84393283  1  0  -0.572835  0  2.0562  0  0  -0.504873  0  2.289448  0  0  -0.531748  0  2.283186  0  0  -0.300338  -0.486309  0  2.29309  0
