# generated using pymatgen
data_CuH2C3SN2
_symmetry_space_group_name_H-M   'P 1'
_cell_length_a   7.24352181
_cell_length_b   7.24624302
_cell_length_c   10.30988138
_cell_angle_alpha   102.34848060
_cell_angle_beta   102.35044763
_cell_angle_gamma   113.05373284
_symmetry_Int_Tables_number   1
_chemical_formula_structural   CuH2C3SN2
_chemical_formula_sum   'Cu4 H8 C12 S4 N8'
_cell_volume   458.97080012
_cell_formula_units_Z   4
loop_
 _symmetry_equiv_pos_site_id
 _symmetry_equiv_pos_as_xyz
  1  'x, y, z'
loop_
 _atom_site_type_symbol
 _atom_site_label
 _atom_site_symmetry_multiplicity
 _atom_site_fract_x
 _atom_site_fract_y
 _atom_site_fract_z
 _atom_site_occupancy
 _atom_site_pbe_bader_spin_density
 _atom_site_pbe_cm5_charge
 _atom_site_pbe_ddec_charge
 _atom_site_pbe_ddec_spin_density
 _atom_site_pbe_ddec_sum_bond_order
 _atom_site_pbe_magmom
Cu  Cu0  1  0.08962046  0.45839800  0.20348273  1  0  0.484197  0.342229  0  2.726558  0
Cu  Cu1  1  0.25505720  0.88574951  0.79627391  1  0  0.485642  0.343996  0  2.727711  0
Cu  Cu2  1  0.13627943  0.00488240  0.29663361  1  0  0.484507  0.343356  0  2.724644  0
Cu  Cu3  1  0.70869337  0.83941539  0.70377928  1  0  0.484956  0.342115  0  2.729562  0
H  H4  1  0.72687228  0.17043971  0.27560470  1  0  0.114267  0.089809  0  1.004573  0
H  H5  1  0.89470394  0.45127717  0.72431262  1  0  0.113966  0.089641  0  1.005431  0
H  H6  1  0.70134626  0.64484579  0.22435675  1  0  0.114019  0.089518  0  1.005474  0
H  H7  1  0.42024169  0.47675238  0.77559911  1  0  0.114395  0.089854  0  1.00452  0
H  H8  1  0.64696008  0.14730327  0.49987779  1  0  0.10122  0.116489  0  1.037678  0
H  H9  1  0.39720356  0.39725614  0.00015828  1  0  0.101099  0.116366  0  1.037917  0
H  H10  1  0.25496051  0.75461608  0.50008812  1  0  0.119441  0.074094  0  1.016203  0
H  H11  1  0.00470286  0.00456563  0.99989185  1  0  0.119361  0.074198  0  1.01607  0
C  C12  1  0.82648168  0.29550217  0.37640472  1  0  0.061788  0.136  0  3.886939  0
C  C13  1  0.91900965  0.45004653  0.62352384  1  0  0.061085  0.134808  0  3.889835  0
C  C14  1  0.70017059  0.66903887  0.12354988  1  0  0.060795  0.134518  0  3.890102  0
C  C15  1  0.54537777  0.57629156  0.87640019  1  0  0.061922  0.13622  0  3.88674  0
C  C16  1  0.78310186  0.28324292  0.49994329  1  0  -0.07912  -0.152068  0  3.94929  0
C  C17  1  0.53318819  0.53311786  0.00001619  1  0  -0.078905  -0.151689  0  3.948819  0
C  C18  1  0.11883788  0.61862669  0.50001310  1  0  0.17336  0.243518  0  3.917384  0
C  C19  1  0.86874661  0.86853369  0.99995021  1  0  0.173179  0.243354  0  3.917286  0
C  C20  1  0.30176291  0.83117622  0.08613678  1  0  0.140722  0.268122  0  4.219716  0
C  C21  1  0.74462135  0.21564460  0.91369644  1  0  0.140616  0.268242  0  4.216141  0
C  C22  1  0.46557909  0.49500688  0.41390803  1  0  0.14042  0.267608  0  4.218887  0
C  C23  1  0.08077139  0.05188537  0.58632715  1  0  0.13971  0.266383  0  4.219899  0
S  S24  1  0.32647601  0.81072081  0.24403470  1  0  -0.169987  -0.291206  0  3.181723  0
S  S25  1  0.56633780  0.08205504  0.75575869  1  0  -0.170479  -0.292086  0  3.182848  0
S  S26  1  0.33221395  0.31655279  0.25601463  1  0  -0.170227  -0.291346  0  3.182049  0
S  S27  1  0.06062337  0.07632147  0.74430516  1  0  -0.169859  -0.290561  0  3.18049  0
N  N28  1  0.99550677  0.46450263  0.37607563  1  0  -0.352058  -0.251503  0  3.604754  0
N  N29  1  0.08855805  0.61926971  0.62391110  1  0  -0.353814  -0.254416  0  3.61043  0
N  N30  1  0.86952328  0.83837998  0.12388059  1  0  -0.353094  -0.25422  0  3.608071  0
N  N31  1  0.71445598  0.74522116  0.87605578  1  0  -0.352535  -0.251681  0  3.607652  0
N  N32  1  0.28450534  0.85119711  0.97404607  1  0  -0.435376  -0.432689  0  3.481552  0
N  N33  1  0.87685918  0.31075543  0.02576931  1  0  -0.435444  -0.43318  0  3.478712  0
N  N34  1  0.56052229  0.62722200  0.52593410  1  0  -0.435218  -0.432373  0  3.481886  0
N  N35  1  0.10088718  0.03492757  0.47428344  1  0  -0.43455  -0.431421  0  3.480794  0
