# generated using pymatgen
data_CuH12(C7N5)2
_symmetry_space_group_name_H-M   'P 1'
_cell_length_a   6.15707639
_cell_length_b   7.44927443
_cell_length_c   9.29710559
_cell_angle_alpha   104.01834023
_cell_angle_beta   104.14398024
_cell_angle_gamma   94.88804468
_symmetry_Int_Tables_number   1
_chemical_formula_structural   CuH12(C7N5)2
_chemical_formula_sum   'Cu1 H12 C14 N10'
_cell_volume   396.42358592
_cell_formula_units_Z   1
loop_
 _symmetry_equiv_pos_site_id
 _symmetry_equiv_pos_as_xyz
  1  'x, y, z'
loop_
 _atom_site_type_symbol
 _atom_site_label
 _atom_site_symmetry_multiplicity
 _atom_site_fract_x
 _atom_site_fract_y
 _atom_site_fract_z
 _atom_site_occupancy
 _atom_site_hle17_ddec_charge
 _atom_site_hle17_ddec_spin_density
 _atom_site_hle17_ddec_sum_bond_order
 _atom_site_hle17_magmom
 _atom_site_hse06_10hf_ddec_charge
 _atom_site_hse06_10hf_ddec_spin_density
 _atom_site_hse06_10hf_ddec_sum_bond_order
 _atom_site_hse06_10hf_magmom
 _atom_site_hse06_ddec_charge
 _atom_site_hse06_ddec_spin_density
 _atom_site_hse06_ddec_sum_bond_order
 _atom_site_hse06_magmom
 _atom_site_pbe_cm5_charge
 _atom_site_pbe_ddec_charge
 _atom_site_pbe_ddec_spin_density
 _atom_site_pbe_ddec_sum_bond_order
 _atom_site_pbe_magmom
Cu  Cu0  1  0.99999653  0.00001836  0.00000012  1  0.917082  0.719086  1.968512  0.532  0.908421  0.799493  2.36553  0.653  0.982971  0.861711  2.307434  0.734  0.827972  0.86018  0.75189  2.408628  0.595
H  H1  1  0.49921872  0.06819638  0.13654651  1  0.084363  0.00033  0.949586  0.001  0.087206  0.000358  1.020068  0.001  0.087918  0.00029  1.017746  0.0  0.130033  0.086602  0.000369  1.021429  0.001
H  H2  1  0.50077259  0.93179245  0.86344616  1  0.084338  0.000332  0.949553  0.001  0.087206  0.000359  1.020015  0.001  0.087917  0.00029  1.017696  0.0  0.130029  0.086602  0.000369  1.021375  0.001
H  H3  1  0.74294422  0.22559828  0.70507256  1  0.134865  -0.000711  0.945241  -0.001  0.155755  -0.000347  1.00389  0.0  0.155798  -0.000345  1.006327  0.0  0.100527  0.155778  -0.000348  1.002119  0.0
H  H4  1  0.25706869  0.77438071  0.29492161  1  0.134994  -0.000708  0.945137  -0.001  0.155876  -0.000347  1.003758  0.0  0.15592  -0.000345  1.006195  0.0  0.100587  0.155891  -0.000348  1.00199  0.0
H  H5  1  0.63133258  0.43864076  0.72910113  1  0.129546  -0.000225  0.945431  0.0  0.146247  -0.000101  1.009357  0.0  0.147249  -0.000111  1.01033  0.0  0.095196  0.145582  -9.8e-05  1.008511  0.0
H  H6  1  0.36868146  0.56133538  0.27089478  1  0.129493  -0.000224  0.945483  0.0  0.146192  -0.0001  1.009428  0.0  0.147195  -0.000111  1.010401  0.0  0.095207  0.145528  -9.8e-05  1.008583  0.0
H  H7  1  0.84981236  0.40220750  0.63189339  1  0.121896  -0.000138  0.953212  0.0  0.140382  -3.5e-05  1.0168  0.0  0.142104  -5.3e-05  1.016285  0.0  0.095938  0.139149  -1.6e-05  1.017066  0.0
H  H8  1  0.15019500  0.59776870  0.36809929  1  0.121929  -0.00013  0.953105  0.0  0.140364  -3.5e-05  1.016749  0.0  0.142088  -5.3e-05  1.016233  0.0  0.095936  0.139133  -1.6e-05  1.017009  0.0
H  H9  1  0.22670938  0.29167651  0.58629116  1  0.123434  7e-05  0.971268  0.0  0.12952  0.000377  1.035093  0.0  0.132567  0.000287  1.035136  0.0  0.11015  0.12795  0.000416  1.033978  0.0
H  H10  1  0.77330206  0.70829509  0.41371737  1  0.123416  7.5e-05  0.9713  0.0  0.129493  0.000377  1.035152  0.0  0.13254  0.000287  1.035195  0.0  0.110158  0.127924  0.000416  1.034041  0.0
H  H11  1  0.95451770  0.15252930  0.32331143  1  0.090231  0.001595  0.969651  0.002  0.088041  0.001156  1.049069  0.002  0.090672  0.000734  1.045403  0.001  0.11815  0.086256  0.00156  1.051265  0.002
H  H12  1  0.04548677  0.84747621  0.67669117  1  0.090234  0.001598  0.969683  0.002  0.088062  0.001155  1.049082  0.002  0.090698  0.000734  1.045411  0.001  0.118169  0.086278  0.00156  1.051284  0.002
C  C13  1  0.44001546  0.12092621  0.23775059  1  0.3008  -0.014825  3.692091  -0.009  0.255343  -0.0037  3.970922  -0.002  0.272439  -0.00515  3.984471  -0.003  0.182345  0.244283  -0.002688  3.96064  -0.001
C  C14  1  0.55998166  0.87906681  0.76224391  1  0.300945  -0.014835  3.691983  -0.009  0.255409  -0.003702  3.970907  -0.002  0.272502  -0.005146  3.984452  -0.003  0.182363  0.244352  -0.002688  3.960631  -0.001
C  C15  1  0.52115960  0.25551256  0.49863986  1  0.361354  -0.012779  3.703328  -0.009  0.36598  -0.004351  3.952312  -0.003  0.379387  -0.004863  3.968856  -0.003  0.142206  0.356326  -0.004006  3.94161  -0.003
C  C16  1  0.47884991  0.74446633  0.50135803  1  0.360973  -0.012774  3.703651  -0.009  0.365746  -0.004352  3.952438  -0.003  0.379151  -0.004859  3.968983  -0.003  0.142067  0.356099  -0.004006  3.94173  -0.003
C  C17  1  0.69574910  0.33674454  0.64952978  1  -0.382906  0.000966  3.674873  0.002  -0.46191  9.2e-05  3.907486  0.0  -0.46558  -9.9e-05  3.915338  0.0  -0.239566  -0.459111  0.000357  3.902119  0.001
C  C18  1  0.30426521  0.66323303  0.35046540  1  -0.382924  0.000955  3.6749  0.002  -0.461915  9.2e-05  3.907584  0.0  -0.465589  -9.9e-05  3.915436  0.0  -0.239616  -0.459113  0.000356  3.902212  0.001
C  C19  1  0.28832718  0.24136481  0.48590133  1  -0.217248  0.011835  3.650061  0.013  -0.228059  0.004274  3.885243  0.005  -0.241143  0.003666  3.906343  0.004  -0.080572  -0.219468  0.004977  3.870381  0.006
C  C20  1  0.71168232  0.75861404  0.51409870  1  -0.21705  0.011821  3.649967  0.013  -0.227898  0.004274  3.885088  0.005  -0.240987  0.003663  3.906203  0.004  -0.080494  -0.219312  0.004976  3.870227  0.006
C  C21  1  0.13782983  0.16569227  0.34107371  1  0.178498  -0.010794  3.671706  -0.007  0.14953  -0.002007  3.924822  -0.001  0.162143  -0.003641  3.941569  -0.002  0.066119  0.141629  -0.000883  3.913324  0.0
C  C22  1  0.86217692  0.83430760  0.65892917  1  0.178473  -0.010799  3.671758  -0.008  0.149499  -0.002008  3.924835  -0.001  0.162103  -0.003638  3.941577  -0.002  0.066078  0.141599  -0.000882  3.913352  0.0
C  C23  1  0.25504391  0.32653561  0.88024724  1  0.472959  -0.01174  3.991424  -0.009  0.447734  -0.002621  4.284882  -0.002  0.473644  -0.00244  4.294908  -0.002  0.288216  0.430039  -0.002761  4.277742  -0.002
C  C24  1  0.74493530  0.67350489  0.11976065  1  0.473236  -0.01173  3.991194  -0.009  0.447997  -0.002583  4.284614  -0.002  0.47391  -0.002482  4.294639  -0.002  0.288419  0.430294  -0.002761  4.27747  -0.002
C  C25  1  0.20995530  0.63810607  0.91378216  1  0.521273  -0.014037  3.966172  -0.006  0.496781  -0.00049  4.2484  0.006  0.527178  -0.002294  4.256201  0.004  0.319252  0.475692  0.000848  4.242873  0.007
C  C26  1  0.79003587  0.36193574  0.08623118  1  0.521042  -0.014044  3.966087  -0.006  0.496534  -0.000476  4.248302  0.006  0.526931  -0.002311  4.256111  0.004  0.319109  0.475446  0.000848  4.242761  0.007
N  N27  1  0.21463389  0.10634293  0.21664630  1  -0.347085  0.087732  3.303022  0.113  -0.301614  0.059173  3.593444  0.083  -0.338075  0.046281  3.617958  0.07  -0.336694  -0.278171  0.06728  3.57687  0.09
N  N28  1  0.78536471  0.89366689  0.78335194  1  -0.347104  0.08772  3.303007  0.113  -0.301601  0.059164  3.59343  0.083  -0.338046  0.046273  3.617932  0.07  -0.336656  -0.27816  0.067268  3.576859  0.09
N  N29  1  0.59497788  0.19337693  0.37279133  1  -0.383139  0.020288  2.976562  0.025  -0.347605  0.007208  3.238764  0.009  -0.366776  0.004739  3.252448  0.007  -0.307711  -0.334031  0.010521  3.228478  0.013
N  N30  1  0.40502135  0.80660064  0.62720246  1  -0.383123  0.020288  2.976612  0.025  -0.347583  0.007207  3.238741  0.009  -0.366753  0.004737  3.252424  0.007  -0.307697  -0.334012  0.010518  3.228458  0.013
N  N31  1  0.16438022  0.78630557  0.96534606  1  -0.599454  0.059686  2.99406  0.073  -0.583397  0.040223  3.30714  0.053  -0.613577  0.033429  3.310143  0.046  -0.41216  -0.564335  0.044456  3.306034  0.055
N  N32  1  0.83562249  0.21373503  0.03466032  1  -0.599333  0.059684  2.993557  0.073  -0.583315  0.040199  3.306683  0.053  -0.613494  0.033441  3.309687  0.046  -0.412172  -0.564272  0.044455  3.305619  0.055
N  N33  1  0.24657400  0.17352542  0.89533360  1  -0.582563  0.011284  2.727854  0.015  -0.575377  -5.9e-05  3.008228  0.002  -0.594527  -0.000989  3.012693  0.001  -0.374906  -0.562282  0.001205  3.004975  0.003
N  N34  1  0.75341035  0.82650673  0.10467124  1  -0.582647  0.011254  2.728236  0.015  -0.575465  -9.4e-05  3.008619  0.002  -0.594608  -0.000959  3.013079  0.001  -0.375014  -0.562374  0.001203  3.005364  0.003
N  N35  1  0.27439575  0.48699867  0.84882187  1  -0.465369  0.011933  3.322081  0.016  -0.418791  0.001097  3.582592  0.003  -0.442931  -0.00028  3.585677  0.001  -0.310496  -0.40199  0.002877  3.579633  0.005
N  N36  1  0.72558025  0.51302488  0.15118842  1  -0.465429  0.011961  3.321624  0.016  -0.418788  0.001127  3.582061  0.003  -0.442941  -0.000292  3.585172  0.001  -0.31047  -0.401982  0.002876  3.5791  0.005
