# generated using pymatgen
data_Sb2P2H2CO7
_symmetry_space_group_name_H-M   'P 1'
_cell_length_a   4.70130954
_cell_length_b   7.22920548
_cell_length_c   11.01246301
_cell_angle_alpha   89.99970337
_cell_angle_beta   93.92822797
_cell_angle_gamma   89.99975487
_symmetry_Int_Tables_number   1
_chemical_formula_structural   Sb2P2H2CO7
_chemical_formula_sum   'Sb4 P4 H4 C2 O14'
_cell_volume   373.39832749
_cell_formula_units_Z   2
loop_
 _symmetry_equiv_pos_site_id
 _symmetry_equiv_pos_as_xyz
  1  'x, y, z'
loop_
 _atom_site_type_symbol
 _atom_site_label
 _atom_site_symmetry_multiplicity
 _atom_site_fract_x
 _atom_site_fract_y
 _atom_site_fract_z
 _atom_site_occupancy
 _atom_site_hle17_bader_spin_density
 _atom_site_hle17_ddec_charge
 _atom_site_hle17_ddec_spin_density
 _atom_site_hle17_ddec_sum_bond_order
 _atom_site_hle17_magmom
 _atom_site_hse06_10hf_bader_spin_density
 _atom_site_hse06_10hf_ddec_charge
 _atom_site_hse06_10hf_ddec_spin_density
 _atom_site_hse06_10hf_ddec_sum_bond_order
 _atom_site_hse06_10hf_magmom
 _atom_site_hse06_bader_spin_density
 _atom_site_hse06_ddec_charge
 _atom_site_hse06_ddec_spin_density
 _atom_site_hse06_ddec_sum_bond_order
 _atom_site_hse06_magmom
 _atom_site_pbe_bader_spin_density
 _atom_site_pbe_cm5_charge
 _atom_site_pbe_ddec_charge
 _atom_site_pbe_ddec_spin_density
 _atom_site_pbe_ddec_sum_bond_order
 _atom_site_pbe_magmom
Sb  Sb0  1  0.52339119  0.34305319  0.44377836  1  0  1.489536  0  2.706329  0  0  1.325152  0  3.210985  0  0  1.368883  0  3.175961  0  0  0.768147  1.290382  0  3.23772  0
Sb  Sb1  1  0.52337167  0.65694463  0.94377782  1  0  1.489457  0  2.706271  0  0  1.325075  0  3.210958  0  0  1.368855  0  3.175873  0  0  0.768203  1.290306  0  3.237727  0
Sb  Sb2  1  0.53907640  0.24408395  0.75301788  1  0  1.463992  0  2.71029  0  0  1.299874  0  3.210246  0  0  1.342572  0  3.177727  0  0  0.76586  1.26564  0  3.235282  0
Sb  Sb3  1  0.53908446  0.75591534  0.25301485  1  0  1.464119  0  2.710208  0  0  1.300002  0  3.210165  0  0  1.342674  0  3.177647  0  0  0.765926  1.265776  0  3.235177  0
P  P4  1  0.02472482  0.91944095  0.77513262  1  0  1.573117  0  4.715764  0  0  1.405462  0  5.216696  0  0  1.45909  0  5.175215  0  0  0.376929  1.368178  0  5.244227  0
P  P5  1  0.02472703  0.08054576  0.27513258  1  0  1.572863  0  4.715742  0  0  1.405128  0  5.216777  0  0  1.458753  0  5.175289  0  0  0.376755  1.367835  0  5.244314  0
P  P6  1  0.08563965  0.57023992  0.61376811  1  0  1.599848  0  4.708084  0  0  1.430011  0  5.212632  0  0  1.483929  0  5.169729  0  0  0.373796  1.392153  0  5.241104  0
P  P7  1  0.08561804  0.42976035  0.11376704  1  0  1.599825  0  4.707921  0  0  1.429979  0  5.212467  0  0  1.483917  0  5.169574  0  0  0.373795  1.392133  0  5.240931  0
H  H8  1  0.33170583  0.85616448  0.61894850  1  0  0.220115  0  0.919167  0  0  0.225972  0  0.973952  0  0  0.230958  0  0.97152  0  0  0.12726  0.222596  0  0.975436  0
H  H9  1  0.33170333  0.14384060  0.11894810  1  0  0.220078  0  0.919152  0  0  0.225925  0  0.973978  0  0  0.230909  0  0.971548  0  0  0.127257  0.222551  0  0.975466  0
H  H10  1  0.97547940  0.88548101  0.55902102  1  0  0.211165  0  0.904042  0  0  0.220994  0  0.954203  0  0  0.225604  0  0.951865  0  0  0.126288  0.217664  0  0.956101  0
H  H11  1  0.97547705  0.11451307  0.05902435  1  0  0.211068  0  0.904076  0  0  0.220926  0  0.95422  0  0  0.225536  0  0.951882  0  0  0.126273  0.217597  0  0.95613  0
C  C12  1  0.10929533  0.81817439  0.63201248  1  0  -0.780444  0  3.549451  0  0  -0.76842  0  3.791704  0  0  -0.786772  0  3.78787  0  0  -0.172327  -0.755764  0  3.794271  0
C  C13  1  0.10929677  0.18182705  0.13201571  1  0  -0.780249  0  3.549348  0  0  -0.768235  0  3.791566  0  0  -0.786596  0  3.787755  0  0  -0.172332  -0.755584  0  3.794149  0
O  O14  1  0.77334233  0.50887956  0.60413018  1  0  -0.870767  0  2.057385  0  0  -0.781033  0  2.329761  0  0  -0.809501  0  2.312592  0  0  -0.332564  -0.759881  0  2.340488  0
O  O15  1  0.77333717  0.49111887  0.10414033  1  0  -0.870782  0  2.057519  0  0  -0.781045  0  2.329862  0  0  -0.809514  0  2.312675  0  0  -0.332588  -0.759893  0  2.340584  0
O  O16  1  0.50991458  0.16832254  0.58139346  1  0  -0.817738  0  1.769632  0  0  -0.728175  0  2.021546  0  0  -0.753562  0  2.0097  0  0  -0.428045  -0.708271  0  2.029802  0
O  O17  1  0.50990709  0.83168096  0.08139513  1  0  -0.817704  0  1.769528  0  0  -0.728214  0  2.021536  0  0  -0.753532  0  2.009612  0  0  -0.428061  -0.708314  0  2.029804  0
O  O18  1  0.25503193  0.47980054  0.72283359  1  0  -0.846269  0  2.133414  0  0  -0.752259  0  2.40616  0  0  -0.778614  0  2.388905  0  0  -0.325756  -0.73254  0  2.418182  0
O  O19  1  0.25503510  0.52019839  0.22284300  1  0  -0.846311  0  2.133154  0  0  -0.752352  0  2.405979  0  0  -0.778673  0  2.388664  0  0  -0.325779  -0.732631  0  2.417988  0
O  O20  1  0.14045595  0.79984907  0.88235277  1  0  -0.809033  0  2.104608  0  0  -0.718647  0  2.37845  0  0  -0.745027  0  2.360754  0  0  -0.317835  -0.699526  0  2.390361  0
O  O21  1  0.14047210  0.20016136  0.38236185  1  0  -0.808998  0  2.104295  0  0  -0.718537  0  2.378057  0  0  -0.744899  0  2.360354  0  0  -0.317772  -0.699412  0  2.389951  0
O  O22  1  0.69979802  0.94232355  0.78206925  1  0  -0.847286  0  2.017717  0  0  -0.75823  0  2.284324  0  0  -0.787605  0  2.269936  0  0  -0.325413  -0.736971  0  2.293778  0
O  O23  1  0.69980883  0.05767368  0.28207592  1  0  -0.847253  0  2.017985  0  0  -0.758195  0  2.284568  0  0  -0.787567  0  2.270191  0  0  -0.325323  -0.736928  0  2.29401  0
O  O24  1  0.15175226  0.11893923  0.77904196  1  0  -0.79127  0  2.085375  0  0  -0.69623  0  2.356057  0  0  -0.721649  0  2.338691  0  0  -0.314805  -0.677213  0  2.367471  0
O  O25  1  0.15176781  0.88106369  0.27904783  1  0  -0.791284  0  2.085577  0  0  -0.696146  0  2.356159  0  0  -0.721595  0  2.338875  0  0  -0.314789  -0.677129  0  2.367569  0
O  O26  1  0.22360519  0.53386831  0.49129563  1  0  -0.794914  0  2.074085  0  0  -0.704444  0  2.346097  0  0  -0.728298  0  2.32751  0  0  -0.32156  -0.686443  0  2.359197  0
O  O27  1  0.22358695  0.46613827  0.99130122  1  0  -0.794883  0  2.074016  0  0  -0.704337  0  2.345981  0  0  -0.728277  0  2.327466  0  0  -0.321537  -0.686311  0  2.359032  0
