# generated using pymatgen
data_ZnPH4C6NO5
_symmetry_space_group_name_H-M   'P 1'
_cell_length_a   5.06907553
_cell_length_b   8.44586791
_cell_length_c   9.68627435
_cell_angle_alpha   89.99916556
_cell_angle_beta   90.00038702
_cell_angle_gamma   88.56653929
_symmetry_Int_Tables_number   1
_chemical_formula_structural   ZnPH4C6NO5
_chemical_formula_sum   'Zn2 P2 H8 C12 N2 O10'
_cell_volume   414.56618986
_cell_formula_units_Z   2
loop_
 _symmetry_equiv_pos_site_id
 _symmetry_equiv_pos_as_xyz
  1  'x, y, z'
loop_
 _atom_site_type_symbol
 _atom_site_label
 _atom_site_symmetry_multiplicity
 _atom_site_fract_x
 _atom_site_fract_y
 _atom_site_fract_z
 _atom_site_occupancy
 _atom_site_hle17_bader_spin_density
 _atom_site_hle17_ddec_charge
 _atom_site_hle17_ddec_spin_density
 _atom_site_hle17_ddec_sum_bond_order
 _atom_site_hle17_magmom
 _atom_site_hse06_10hf_bader_spin_density
 _atom_site_hse06_10hf_ddec_charge
 _atom_site_hse06_10hf_ddec_spin_density
 _atom_site_hse06_10hf_ddec_sum_bond_order
 _atom_site_hse06_10hf_magmom
 _atom_site_hse06_bader_spin_density
 _atom_site_hse06_ddec_charge
 _atom_site_hse06_ddec_spin_density
 _atom_site_hse06_ddec_sum_bond_order
 _atom_site_hse06_magmom
 _atom_site_pbe_bader_spin_density
 _atom_site_pbe_cm5_charge
 _atom_site_pbe_ddec_charge
 _atom_site_pbe_ddec_spin_density
 _atom_site_pbe_ddec_sum_bond_order
 _atom_site_pbe_magmom
Zn  Zn0  1  0.67864577  0.11922125  0.35359873  1  0  1.236474  0  1.72038  0  0  1.066882  0  2.203469  0  0  1.113263  0  2.139075  0  0  0.7036  1.033519  0  2.249032  0
Zn  Zn1  1  0.17864402  0.61921829  0.64640484  1  0  1.23659  0  1.720324  0  0  1.066948  0  2.203504  0  0  1.113335  0  2.139103  0  0  0.703668  1.033586  0  2.249071  0
P  P2  1  0.18451347  0.91665758  0.44532357  1  0  1.473847  0  4.940239  0  0  1.310716  0  5.432404  0  0  1.362527  0  5.396454  0  0  0.341008  1.274561  0  5.456193  0
P  P3  1  0.68451198  0.41665614  0.55467724  1  0  1.473767  0  4.940339  0  0  1.310567  0  5.432548  0  0  1.362372  0  5.396601  0  0  0.340954  1.274412  0  5.456333  0
H  H4  1  0.75907437  0.68599002  0.43050304  1  0  0.11985  0  0.980304  0  0  0.124303  0  1.045047  0  0  0.128256  0  1.040843  0  0  0.137672  0.121282  0  1.048195  0
H  H5  1  0.25906605  0.18599372  0.56948655  1  0  0.119826  0  0.980289  0  0  0.124286  0  1.045009  0  0  0.128233  0  1.040816  0  0  0.137636  0.121275  0  1.048145  0
H  H6  1  0.36998678  0.84977150  0.15606657  1  0  0.120176  0  0.947004  0  0  0.124916  0  1.018329  0  0  0.129144  0  1.013599  0  0  0.116584  0.121837  0  1.021589  0
H  H7  1  0.86997126  0.34975976  0.84393370  1  0  0.120196  0  0.947054  0  0  0.124972  0  1.01832  0  0  0.129214  0  1.013555  0  0  0.116603  0.121892  0  1.021581  0
H  H8  1  0.80156044  0.50629922  0.03092855  1  0  0.109409  0  0.945878  0  0  0.11577  0  1.009803  0  0  0.118675  0  1.006412  0  0  0.13592  0.113589  0  1.012263  0
H  H9  1  0.30150862  0.00631170  0.96907278  1  0  0.109404  0  0.945962  0  0  0.11581  0  1.00981  0  0  0.118716  0  1.006414  0  0  0.135939  0.113624  0  1.012279  0
H  H10  1  0.64982886  0.50517296  0.26411908  1  0  0.321142  0  0.846319  0  0  0.302934  0  0.898596  0  0  0.311386  0  0.893006  0  0  0.33596  0.296638  0  0.903163  0
H  H11  1  0.14980327  0.00518148  0.73587759  1  0  0.321066  0  0.846421  0  0  0.302866  0  0.898682  0  0  0.311319  0  0.893092  0  0  0.335981  0.296562  0  0.903264  0
C  C12  1  0.86730076  0.68737172  0.33331725  1  0  0.181856  0  3.578179  0  0  0.129861  0  3.825769  0  0  0.143025  0  3.837967  0  0  0.084616  0.121442  0  3.817556  0
C  C13  1  0.36729196  0.18737976  0.66667787  1  0  0.181636  0  3.578186  0  0  0.12972  0  3.825673  0  0  0.142885  0  3.837882  0  0  0.084597  0.121298  0  3.817451  0
C  C14  1  0.07971671  0.78391164  0.30856164  1  0  -0.27718  0  3.708309  0  0  -0.231196  0  3.958231  0  0  -0.24794  0  3.97872  0  0  -0.009666  -0.220775  0  3.945169  0
C  C15  1  0.57969364  0.28391681  0.69143740  1  0  -0.277023  0  3.70832  0  0  -0.231076  0  3.958242  0  0  -0.247819  0  3.97873  0  0  -0.009675  -0.220656  0  3.945185  0
C  C16  1  0.19966052  0.77719834  0.17828064  1  0  0.041855  0  3.620976  0  0  -0.002798  0  3.870498  0  0  0.007831  0  3.884874  0  0  -0.037152  -0.009265  0  3.861095  0
C  C17  1  0.69963917  0.27720014  0.82172305  1  0  0.041794  0  3.621026  0  0  -0.002884  0  3.870503  0  0  0.007746  0  3.884885  0  0  -0.037141  -0.009351  0  3.861105  0
C  C18  1  0.09919530  0.67980935  0.07481303  1  0  -0.108713  0  3.695007  0  0  -0.080546  0  3.932606  0  0  -0.095742  0  3.955046  0  0  -0.003093  -0.071278  0  3.918095  0
C  C19  1  0.59914583  0.17981255  0.92518845  1  0  -0.108675  0  3.69516  0  0  -0.080466  0  3.932681  0  0  -0.095665  0  3.955129  0  0  -0.003022  -0.071197  0  3.91817  0
C  C20  1  0.88606179  0.58572741  0.10556679  1  0  0.191634  0  3.549512  0  0  0.137482  0  3.800288  0  0  0.152218  0  3.811276  0  0  0.090072  0.127683  0  3.793197  0
C  C21  1  0.38601670  0.08573621  0.89443072  1  0  0.191541  0  3.549678  0  0  0.13734  0  3.800462  0  0  0.152076  0  3.811455  0  0  0.089988  0.127543  0  3.793366  0
C  C22  1  0.21929219  0.67512556  0.93195191  1  0  0.637551  0  3.966966  0  0  0.591203  0  4.256966  0  0  0.62511  0  4.252098  0  0  0.202315  0.568173  0  4.259545  0
C  C23  1  0.71927414  0.17512779  0.06804903  1  0  0.637881  0  3.967076  0  0  0.591558  0  4.257012  0  0  0.625465  0  4.252141  0  0  0.20245  0.568528  0  4.25959  0
N  N24  1  0.78316918  0.58906268  0.23366951  1  0  -0.202607  0  3.43416  0  0  -0.12628  0  3.66087  0  0  -0.14366  0  3.674172  0  0  -0.330149  -0.114897  0  3.652184  0
N  N25  1  0.28313988  0.08906488  0.76632244  1  0  -0.202335  0  3.434034  0  0  -0.126057  0  3.660765  0  0  -0.143436  0  3.674069  0  0  -0.330108  -0.114671  0  3.652093  0
O  O26  1  0.03351710  0.07409650  0.42318087  1  0  -0.859284  0  2.03931  0  0  -0.766934  0  2.335663  0  0  -0.796671  0  2.308968  0  0  -0.374545  -0.745713  0  2.353483  0
O  O27  1  0.53351171  0.57409431  0.57682070  1  0  -0.859397  0  2.039383  0  0  -0.766945  0  2.335661  0  0  -0.796684  0  2.308973  0  0  -0.374557  -0.745719  0  2.353475  0
O  O28  1  0.48169420  0.93805888  0.43014888  1  0  -0.864046  0  2.017197  0  0  -0.772946  0  2.311994  0  0  -0.803537  0  2.288865  0  0  -0.373976  -0.751007  0  2.326809  0
O  O29  1  0.98169094  0.43805724  0.56986304  1  0  -0.863945  0  2.017219  0  0  -0.772883  0  2.312134  0  0  -0.803479  0  2.289009  0  0  -0.373939  -0.750947  0  2.32695  0
O  O30  1  0.10594189  0.83908024  0.58333881  1  0  -0.861149  0  1.968631  0  0  -0.768519  0  2.254149  0  0  -0.796578  0  2.226918  0  0  -0.375184  -0.748945  0  2.273636  0
O  O31  1  0.60595665  0.33909249  0.41665446  1  0  -0.861154  0  1.968685  0  0  -0.768442  0  2.254082  0  0  -0.796494  0  2.226848  0  0  -0.375126  -0.748873  0  2.273567  0
O  O32  1  0.08950961  0.59327633  0.84295720  1  0  -0.664188  0  2.047171  0  0  -0.594032  0  2.319889  0  0  -0.624107  0  2.303941  0  0  -0.324728  -0.572033  0  2.330065  0
O  O33  1  0.58946531  0.09328370  0.15704948  1  0  -0.664322  0  2.047032  0  0  -0.594204  0  2.319761  0  0  -0.624276  0  2.30381  0  0  -0.32477  -0.572211  0  2.329964  0
O  O34  1  0.42468199  0.74910178  0.91008168  1  0  -0.596674  0  1.904996  0  0  -0.560881  0  2.123561  0  0  -0.583274  0  2.11569  0  0  -0.319335  -0.54487  0  2.128583  0
O  O35  1  0.92465175  0.24908265  0.08991801  1  0  -0.596805  0  1.905379  0  0  -0.561043  0  2.123976  0  0  -0.583436  0  2.116103  0  0  -0.319396  -0.545034  0  2.128998  0
