# generated using pymatgen
data_U3H10(C2O7)2
_symmetry_space_group_name_H-M   'P 1'
_cell_length_a   6.97409799
_cell_length_b   7.26061454
_cell_length_c   8.34046299
_cell_angle_alpha   107.06975302
_cell_angle_beta   96.91251337
_cell_angle_gamma   111.77643823
_symmetry_Int_Tables_number   1
_chemical_formula_structural   U3H10(C2O7)2
_chemical_formula_sum   'U3 H10 C4 O14'
_cell_volume   362.19754405
_cell_formula_units_Z   1
loop_
 _symmetry_equiv_pos_site_id
 _symmetry_equiv_pos_as_xyz
  1  'x, y, z'
loop_
 _atom_site_type_symbol
 _atom_site_label
 _atom_site_symmetry_multiplicity
 _atom_site_fract_x
 _atom_site_fract_y
 _atom_site_fract_z
 _atom_site_occupancy
 _atom_site_hle17_bader_spin_density
 _atom_site_hle17_ddec_charge
 _atom_site_hle17_ddec_spin_density
 _atom_site_hle17_ddec_sum_bond_order
 _atom_site_hle17_magmom
 _atom_site_hse06_10hf_bader_spin_density
 _atom_site_hse06_10hf_ddec_charge
 _atom_site_hse06_10hf_ddec_spin_density
 _atom_site_hse06_10hf_ddec_sum_bond_order
 _atom_site_hse06_10hf_magmom
 _atom_site_hse06_bader_spin_density
 _atom_site_hse06_ddec_charge
 _atom_site_hse06_ddec_spin_density
 _atom_site_hse06_ddec_sum_bond_order
 _atom_site_hse06_magmom
 _atom_site_pbe_bader_spin_density
 _atom_site_pbe_cm5_charge
 _atom_site_pbe_ddec_charge
 _atom_site_pbe_ddec_spin_density
 _atom_site_pbe_ddec_sum_bond_order
 _atom_site_pbe_magmom
U  U0  1  0.99998893  0.49997821  0.99998779  1  0  2.566108  0  4.075332  0  0  2.657741  0  4.71066  0  0  2.782809  0  4.667801  0  0  2.185284  2.569323  0  4.741186  0
U  U1  1  0.46786607  0.36059945  0.15578280  1  0  2.626892  0  4.083203  0  0  2.723782  0  4.714119  0  0  2.840628  0  4.674394  0  0  2.215918  2.640502  0  4.743501  0
U  U2  1  0.53213280  0.63939152  0.84420940  1  0  2.627096  0  4.083246  0  0  2.723846  0  4.714069  0  0  2.840621  0  4.674499  0  0  2.215851  2.640459  0  4.743582  0
H  H3  1  0.06335694  0.25471284  0.50019182  1  0  0.160008  0  0.953624  0  0  0.176843  0  1.016371  0  0  0.180035  0  1.014787  0  0  0.116594  0.17459  0  1.017568  0
H  H4  1  0.93664885  0.74529414  0.49981106  1  0  0.160055  0  0.953635  0  0  0.176891  0  1.016365  0  0  0.180085  0  1.014778  0  0  0.116605  0.174637  0  1.01756  0
H  H5  1  0.91622596  0.00824643  0.32324293  1  0  0.167947  0  0.919283  0  0  0.191183  0  0.969541  0  0  0.194285  0  0.967951  0  0  0.126717  0.189062  0  0.970675  0
H  H6  1  0.08377912  0.99175567  0.67675027  1  0  0.167968  0  0.919273  0  0  0.191159  0  0.969588  0  0  0.194258  0  0.968001  0  0  0.126693  0.18904  0  0.97072  0
H  H7  1  0.77733512  0.15209444  0.42807000  1  0  0.160252  0  0.936363  0  0  0.180217  0  0.987496  0  0  0.183475  0  0.985234  0  0  0.1128  0.177945  0  0.989066  0
H  H8  1  0.22266022  0.84789823  0.57193188  1  0  0.160265  0  0.936325  0  0  0.180217  0  0.987471  0  0  0.183476  0  0.985207  0  0  0.112787  0.177946  0  0.989041  0
H  H9  1  0.41525239  0.22846848  0.46470593  1  0  0.458416  0  0.832294  0  0  0.438491  0  0.877954  0  0  0.451112  0  0.859592  0  0  0.312137  0.429513  0  0.891005  0
H  H10  1  0.58475275  0.77154019  0.53530571  1  0  0.458481  0  0.832227  0  0  0.438551  0  0.877888  0  0  0.451179  0  0.859517  0  0  0.312162  0.429572  0  0.890941  0
H  H11  1  0.31764977  0.00636420  0.29248484  1  0  0.46184  0  0.825528  0  0  0.443607  0  0.867989  0  0  0.456381  0  0.849422  0  0  0.31649  0.434565  0  0.881111  0
H  H12  1  0.68236827  0.99364764  0.70752763  1  0  0.461783  0  0.825611  0  0  0.443547  0  0.868074  0  0  0.456322  0  0.849505  0  0  0.316463  0.434506  0  0.881195  0
C  C13  1  0.95159064  0.28024874  0.26346843  1  0  0.850767  0  3.706537  0  0  0.829553  0  3.983624  0  0  0.869687  0  3.967654  0  0  0.267024  0.801489  0  3.993813  0
C  C14  1  0.04840811  0.71975515  0.73654139  1  0  0.850791  0  3.706512  0  0  0.829647  0  3.983491  0  0  0.869773  0  3.967528  0  0  0.267037  0.801559  0  3.99373  0
C  C15  1  0.92384820  0.16715074  0.38735557  1  0  -0.471858  0  3.599154  0  0  -0.544081  0  3.806873  0  0  -0.552056  0  3.806245  0  0  -0.224917  -0.538425  0  3.807239  0
C  C16  1  0.07615267  0.83285147  0.61264684  1  0  -0.471954  0  3.599096  0  0  -0.544161  0  3.806827  0  0  -0.552132  0  3.806197  0  0  -0.224934  -0.538497  0  3.807203  0
O  O17  1  0.13473462  0.75860758  0.18166243  1  0  -0.752324  0  1.556446  0  0  -0.762606  0  1.832585  0  0  -0.789487  0  1.815185  0  0  -0.725175  -0.744789  0  1.844878  0
O  O18  1  0.86527343  0.24139133  0.81833025  1  0  -0.752375  0  1.556902  0  0  -0.762651  0  1.833137  0  0  -0.789508  0  1.815699  0  0  -0.725478  -0.744837  0  1.84543  0
O  O19  1  0.57833683  0.60983514  0.34753814  1  0  -0.78266  0  1.572257  0  0  -0.792909  0  1.85031  0  0  -0.819291  0  1.833019  0  0  -0.733694  -0.775488  0  1.862758  0
O  O20  1  0.42165823  0.39016705  0.65246131  1  0  -0.78269  0  1.572521  0  0  -0.79287  0  1.850556  0  0  -0.819235  0  1.833284  0  0  -0.733704  -0.775419  0  1.863022  0
O  O21  1  0.35045491  0.10269783  0.98179695  1  0  -0.685681  0  1.543372  0  0  -0.706067  0  1.834483  0  0  -0.729657  0  1.820839  0  0  -0.720841  -0.690654  0  1.844406  0
O  O22  1  0.64954214  0.89730907  0.01819788  1  0  -0.68571  0  1.543157  0  0  -0.706088  0  1.834269  0  0  -0.729671  0  1.820642  0  0  -0.720729  -0.690641  0  1.844203  0
O  O23  1  0.11032870  0.31152763  0.19501474  1  0  -0.750643  0  2.079999  0  0  -0.736696  0  2.35232  0  0  -0.773259  0  2.345979  0  0  -0.366413  -0.709935  0  2.355405  0
O  O24  1  0.88966010  0.68846337  0.80497890  1  0  -0.7507  0  2.080224  0  0  -0.736782  0  2.352514  0  0  -0.773331  0  2.346177  0  0  -0.366382  -0.710005  0  2.355631  0
O  O25  1  0.82212560  0.35586606  0.22208115  1  0  -0.738579  0  2.088979  0  0  -0.721952  0  2.361034  0  0  -0.758762  0  2.355933  0  0  -0.363514  -0.695121  0  2.363282  0
O  O26  1  0.17788000  0.64415703  0.77794015  1  0  -0.738539  0  2.088848  0  0  -0.721946  0  2.360889  0  0  -0.75874  0  2.355797  0  0  -0.363529  -0.695095  0  2.36315  0
O  O27  1  0.31421170  0.49547739  0.99640558  1  0  -1.097581  0  1.833376  0  0  -1.182315  0  2.21496  0  0  -1.251082  0  2.219587  0  0  -0.816539  -1.132252  0  2.210221  0
O  O28  1  0.68578009  0.50450719  0.00358314  1  0  -1.097549  0  1.833266  0  0  -1.182304  0  2.214882  0  0  -1.251063  0  2.219504  0  0  -0.816592  -1.132262  0  2.210188  0
O  O29  1  0.42294009  0.15973113  0.34423019  1  0  -0.889906  0  1.833506  0  0  -0.865924  0  2.005527  0  0  -0.89343  0  1.972221  0  0  -0.609078  -0.845651  0  2.028415  0
O  O30  1  0.57705502  0.84027110  0.65577288  1  0  -0.889921  0  1.83359  0  0  -0.865923  0  2.00563  0  0  -0.893425  0  1.972314  0  0  -0.609042  -0.845634  0  2.028523  0
