# generated using pymatgen
data_MnH8(C6N5)2
_symmetry_space_group_name_H-M   'P 1'
_cell_length_a   6.18284771
_cell_length_b   7.22038822
_cell_length_c   8.93749955
_cell_angle_alpha   72.58152548
_cell_angle_beta   71.75100142
_cell_angle_gamma   89.45195594
_symmetry_Int_Tables_number   1
_chemical_formula_structural   MnH8(C6N5)2
_chemical_formula_sum   'Mn1 H8 C12 N10'
_cell_volume   359.98601293
_cell_formula_units_Z   1
loop_
 _symmetry_equiv_pos_site_id
 _symmetry_equiv_pos_as_xyz
  1  'x, y, z'
loop_
 _atom_site_type_symbol
 _atom_site_label
 _atom_site_symmetry_multiplicity
 _atom_site_fract_x
 _atom_site_fract_y
 _atom_site_fract_z
 _atom_site_occupancy
 _atom_site_pbe_cm5_charge
 _atom_site_pbe_ddec_charge
 _atom_site_pbe_ddec_spin_density
 _atom_site_pbe_ddec_sum_bond_order
 _atom_site_pbe_magmom
Mn  Mn0  1  0.49511168  0.00937222  0.98477390  1  0.820172  0.72715  1.120983  3.747503  1.074
H  H1  1  0.75415163  0.32385853  0.38055814  1  0.110929  0.08355  0.000227  1.047864  0.0
H  H2  1  0.25212263  0.66262262  0.62812805  1  0.112391  0.085324  -0.000135  1.047286  0.0
H  H3  1  0.36644715  0.32712341  0.34185637  1  0.108167  0.11214  -0.00066  1.017545  0.0
H  H4  1  0.64374693  0.65866992  0.65968713  1  0.111553  0.111879  -0.000178  1.014869  0.0
H  H5  1  0.02064393  0.17189237  0.60370803  1  0.110822  0.110563  -0.000169  1.047448  0.0
H  H6  1  0.98380703  0.82305237  0.39861832  1  0.11133  0.108988  -0.000196  1.048931  0.0
H  H7  1  0.10057248  0.03412835  0.86887406  1  0.124611  0.0999  -0.000127  1.041405  0.0
H  H8  1  0.89209650  0.97198757  0.13589173  1  0.124465  0.098403  -7.2e-05  1.033978  0.0
C  C9  1  0.59853476  0.26057747  0.48466271  1  0.04248  0.04276  0.002897  4.002917  0.005
C  C10  1  0.40526839  0.72891340  0.52274091  1  0.047517  0.043309  -0.000601  3.968577  0.0
C  C11  1  0.38412580  0.26207833  0.46353454  1  -0.077539  -0.098155  -0.033972  3.952062  -0.02
C  C12  1  0.62261619  0.72781454  0.53966369  1  -0.061562  -0.068403  -0.005483  3.921445  -0.003
C  C13  1  0.19695398  0.17782640  0.60447634  1  -0.066119  -0.069465  -0.003052  3.940542  0.0
C  C14  1  0.80675267  0.81700033  0.39919334  1  -0.05921  -0.065298  -0.001317  3.91132  0.0
C  C15  1  0.23824671  0.10135328  0.75396956  1  0.046895  0.033202  -0.016864  3.884386  -0.008
C  C16  1  0.75833705  0.89886712  0.25196438  1  0.059575  0.050928  -0.002989  3.906606  -0.002
C  C17  1  0.80538788  0.38600561  0.89013256  1  0.316068  0.433733  0.004903  4.211095  0.004
C  C18  1  0.19158183  0.62308467  0.10369778  1  0.316594  0.437694  0.006191  4.210713  0.005
C  C19  1  0.80659163  0.70027306  0.88196143  1  0.311473  0.430046  -0.005492  4.207885  -0.005
C  C20  1  0.19028322  0.30989955  0.11019000  1  0.31236  0.433274  -0.004957  4.21214  -0.004
N  N21  1  0.45140784  0.10686700  0.76620049  1  -0.216343  -0.047318  -0.029318  3.576131  -0.03
N  N22  1  0.54579970  0.89202835  0.24414073  1  -0.157812  -0.064899  -0.013757  3.448672  -0.014
N  N23  1  0.63322292  0.18543446  0.63048395  1  -0.18729  -0.146317  -0.027043  3.250422  -0.019
N  N24  1  0.36761174  0.80867092  0.37833085  1  -0.174352  -0.130137  -0.006336  3.281241  -0.004
N  N25  1  0.71859408  0.22637252  0.93006191  1  -0.394153  -0.488757  -0.001551  3.436881  -0.006
N  N26  1  0.27490954  0.78491677  0.05644631  1  -0.395408  -0.492544  -0.002514  3.435769  -0.007
N  N27  1  0.91398822  0.55809914  0.83936873  1  -0.307705  -0.397105  0.011456  3.513756  0.012
N  N28  1  0.08820128  0.44810626  0.16301655  1  -0.307542  -0.397009  0.011958  3.509158  0.013
N  N29  1  0.71984085  0.83649453  0.91216471  1  -0.390327  -0.486586  -0.001045  3.435093  -0.001
N  N30  1  0.27303478  0.17659848  0.07149847  1  -0.392039  -0.49085  -0.000787  3.430996  -0.001
