# generated using pymatgen
data_HgH10C10N6(ClO)2
_symmetry_space_group_name_H-M   'P 1'
_cell_length_a   3.92172499
_cell_length_b   6.21270956
_cell_length_c   14.50949903
_cell_angle_alpha   98.83121889
_cell_angle_beta   88.71280522
_cell_angle_gamma   96.37914420
_symmetry_Int_Tables_number   1
_chemical_formula_structural   HgH10C10N6(ClO)2
_chemical_formula_sum   'Hg1 H10 C10 N6 Cl2 O2'
_cell_volume   347.15811565
_cell_formula_units_Z   1
loop_
 _symmetry_equiv_pos_site_id
 _symmetry_equiv_pos_as_xyz
  1  'x, y, z'
loop_
 _atom_site_type_symbol
 _atom_site_label
 _atom_site_symmetry_multiplicity
 _atom_site_fract_x
 _atom_site_fract_y
 _atom_site_fract_z
 _atom_site_occupancy
 _atom_site_hle17_bader_spin_density
 _atom_site_hle17_ddec_charge
 _atom_site_hle17_ddec_spin_density
 _atom_site_hle17_ddec_sum_bond_order
 _atom_site_hle17_magmom
 _atom_site_hse06_10hf_bader_spin_density
 _atom_site_hse06_10hf_ddec_charge
 _atom_site_hse06_10hf_ddec_spin_density
 _atom_site_hse06_10hf_ddec_sum_bond_order
 _atom_site_hse06_10hf_magmom
 _atom_site_hse06_bader_spin_density
 _atom_site_hse06_ddec_charge
 _atom_site_hse06_ddec_spin_density
 _atom_site_hse06_ddec_sum_bond_order
 _atom_site_hse06_magmom
 _atom_site_pbe_bader_spin_density
 _atom_site_pbe_cm5_charge
 _atom_site_pbe_ddec_charge
 _atom_site_pbe_ddec_spin_density
 _atom_site_pbe_ddec_sum_bond_order
 _atom_site_pbe_magmom
Hg  Hg0  1  0.49998482  0.99999315  0.99999957  1  0  0.745707  0  2.119031  0  0  0.596058  0  2.614293  0  0  0.647839  0  2.578829  0  0  0.486132  0.560527  0  2.638263  0
H  H1  1  0.23028956  0.66881153  0.30853532  1  0  0.103547  0  0.936798  0  0  0.110505  0  0.998607  0  0  0.113797  0  0.996856  0  0  0.121447  0.108071  0  1.000151  0
H  H2  1  0.76975706  0.33121308  0.69145406  1  0  0.103504  0  0.936865  0  0  0.11044  0  0.998751  0  0  0.113722  0  0.997006  0  0  0.121336  0.108013  0  1.000283  0
H  H3  1  0.22727939  0.48387063  0.14057334  1  0  0.098347  0  0.953257  0  0  0.101418  0  1.025006  0  0  0.104088  0  1.023044  0  0  0.10561  0.099458  0  1.026568  0
H  H4  1  0.77273938  0.51609968  0.85942578  1  0  0.09844  0  0.953218  0  0  0.10153  0  1.024981  0  0  0.104196  0  1.023013  0  0  0.10561  0.099567  0  1.026535  0
H  H5  1  0.68546228  0.96914737  0.21944237  1  0  0.095282  0  0.966441  0  0  0.095602  0  1.04292  0  0  0.099459  0  1.039348  0  0  0.10794  0.092781  0  1.045708  0
H  H6  1  0.31446403  0.03081903  0.78055689  1  0  0.095264  0  0.966599  0  0  0.095539  0  1.043085  0  0  0.099405  0  1.039486  0  0  0.107906  0.092714  0  1.045881  0
H  H7  1  0.89982784  0.16453529  0.54026610  1  0  0.340614  0  0.926048  0  0  0.322073  0  0.985639  0  0  0.331751  0  0.977605  0  0  0.29682  0.315239  0  0.991269  0
H  H8  1  0.10017724  0.83550619  0.45973156  1  0  0.340709  0  0.926075  0  0  0.322061  0  0.985817  0  0  0.331742  0  0.977778  0  0  0.296791  0.315227  0  0.991443  0
H  H9  1  0.65892439  0.36865714  0.51076393  1  0  0.320218  0  0.929748  0  0  0.289594  0  1.020426  0  0  0.299109  0  1.011156  0  0  0.297485  0.282846  0  1.02698  0
H  H10  1  0.34110264  0.63137372  0.48922733  1  0  0.320195  0  0.929691  0  0  0.289557  0  1.020399  0  0  0.299073  0  1.011131  0  0  0.297468  0.282809  0  1.02695  0
C  C11  1  0.33632974  0.51282637  0.28916289  1  0  0.078638  0  3.65239  0  0  0.054936  0  3.91243  0  0  0.055465  0  3.928826  0  0  0.05363  0.054373  0  3.90148  0
C  C12  1  0.66370532  0.48718053  0.71083529  1  0  0.078683  0  3.652619  0  0  0.055006  0  3.912686  0  0  0.055537  0  3.929084  0  0  0.053724  0.054439  0  3.901745  0
C  C13  1  0.33138636  0.41065217  0.19614033  1  0  0.087024  0  3.658349  0  0  0.056827  0  3.917105  0  0  0.060824  0  3.935442  0  0  0.056108  0.054308  0  3.90455  0
C  C14  1  0.66860822  0.58932763  0.80386093  1  0  0.086855  0  3.658141  0  0  0.056591  0  3.916959  0  0  0.060592  0  3.935296  0  0  0.0561  0.054084  0  3.904385  0
C  C15  1  0.58309771  0.12598682  0.23932335  1  0  0.076084  0  3.669775  0  0  0.039532  0  3.92044  0  0  0.043616  0  3.938439  0  0  0.055822  0.03645  0  3.909132  0
C  C16  1  0.41685721  0.87398586  0.76067997  1  0  0.075963  0  3.66992  0  0  0.039505  0  3.920508  0  0  0.043601  0  3.938493  0  0  0.05586  0.03641  0  3.909238  0
C  C17  1  0.59431332  0.23101618  0.33180586  1  0  0.048883  0  3.754063  0  0  0.060149  0  3.996101  0  0  0.056813  0  4.015528  0  0  0.117974  0.062048  0  3.983164  0
C  C18  1  0.40568045  0.76897085  0.66819051  1  0  0.048993  0  3.754  0  0  0.060315  0  3.99598  0  0  0.056982  0  4.015395  0  0  0.118019  0.062169  0  3.983109  0
C  C19  1  0.76525914  0.12765680  0.40282578  1  0  0.585091  0  3.867874  0  0  0.534447  0  4.156071  0  0  0.563825  0  4.156193  0  0  0.240078  0.514748  0  4.155262  0
C  C20  1  0.23474979  0.87234795  0.59717491  1  0  0.585027  0  3.868019  0  0  0.53427  0  4.156374  0  0  0.563654  0  4.156493  0  0  0.24001  0.51459  0  4.155564  0
N  N21  1  0.46854253  0.42397178  0.35713855  1  0  -0.271927  0  3.078756  0  0  -0.23549  0  3.335995  0  0  -0.241226  0  3.350859  0  0  -0.288142  -0.231149  0  3.325914  0
N  N22  1  0.53149257  0.57603795  0.64286333  1  0  -0.271927  0  3.07881  0  0  -0.235515  0  3.336042  0  0  -0.24125  0  3.350901  0  0  -0.288158  -0.231168  0  3.325991  0
N  N23  1  0.45406265  0.21680388  0.17198349  1  0  -0.253773  0  3.196854  0  0  -0.192493  0  3.462528  0  0  -0.209034  0  3.48393  0  0  -0.29273  -0.180856  0  3.447465  0
N  N24  1  0.54590922  0.78318163  0.82802374  1  0  -0.253654  0  3.196412  0  0  -0.192366  0  3.462041  0  0  -0.208915  0  3.483454  0  0  -0.292736  -0.180721  0  3.446954  0
N  N25  1  0.77698537  0.23084015  0.49027777  1  0  -0.653231  0  3.138218  0  0  -0.615592  0  3.383388  0  0  -0.639567  0  3.377152  0  0  -0.561948  -0.599038  0  3.387395  0
N  N26  1  0.22303279  0.76918532  0.50971646  1  0  -0.653287  0  3.13809  0  0  -0.615549  0  3.383425  0  0  -0.639538  0  3.377186  0  0  -0.561878  -0.59899  0  3.387418  0
Cl  Cl27  1  0.85153117  0.74990129  0.05653326  1  0  -0.438292  0  1.088358  0  0  -0.379721  0  1.388575  0  0  -0.399566  0  1.369725  0  0  -0.248332  -0.366178  0  1.40185  0
Cl  Cl28  1  0.14842627  0.25008775  0.94347148  1  0  -0.438299  0  1.08834  0  0  -0.379736  0  1.388571  0  0  -0.399583  0  1.369718  0  0  -0.248323  -0.366189  0  1.401844  0
O  O29  1  0.89696934  0.95281544  0.37608612  1  0  -0.589391  0  1.951271  0  0  -0.53979  0  2.17333  0  0  -0.563245  0  2.168467  0  0  -0.304828  -0.523344  0  2.176153  0
O  O30  1  0.10303226  0.04717739  0.62391698  1  0  -0.589289  0  1.951302  0  0  -0.539703  0  2.173437  0  0  -0.563164  0  2.168574  0  0  -0.304798  -0.523237  0  2.176207  0
