# generated using pymatgen
data_KHC6(NO2)4
_symmetry_space_group_name_H-M   'P 1'
_cell_length_a   7.32297691
_cell_length_b   8.31480993
_cell_length_c   9.16489476
_cell_angle_alpha   67.40409379
_cell_angle_beta   68.07714558
_cell_angle_gamma   72.20865818
_symmetry_Int_Tables_number   1
_chemical_formula_structural   KHC6(NO2)4
_chemical_formula_sum   'K2 H2 C12 N8 O16'
_cell_volume   469.31224091
_cell_formula_units_Z   2
loop_
 _symmetry_equiv_pos_site_id
 _symmetry_equiv_pos_as_xyz
  1  'x, y, z'
loop_
 _atom_site_type_symbol
 _atom_site_label
 _atom_site_symmetry_multiplicity
 _atom_site_fract_x
 _atom_site_fract_y
 _atom_site_fract_z
 _atom_site_occupancy
 _atom_site_hle17_bader_spin_density
 _atom_site_hle17_ddec_charge
 _atom_site_hle17_ddec_spin_density
 _atom_site_hle17_ddec_sum_bond_order
 _atom_site_hle17_magmom
 _atom_site_hse06_10hf_bader_spin_density
 _atom_site_hse06_10hf_ddec_charge
 _atom_site_hse06_10hf_ddec_spin_density
 _atom_site_hse06_10hf_ddec_sum_bond_order
 _atom_site_hse06_10hf_magmom
 _atom_site_hse06_bader_spin_density
 _atom_site_hse06_ddec_charge
 _atom_site_hse06_ddec_spin_density
 _atom_site_hse06_ddec_sum_bond_order
 _atom_site_hse06_magmom
 _atom_site_pbe_bader_spin_density
 _atom_site_pbe_cm5_charge
 _atom_site_pbe_ddec_charge
 _atom_site_pbe_ddec_spin_density
 _atom_site_pbe_ddec_sum_bond_order
 _atom_site_pbe_magmom
K  K0  1  0.94956197  0.75237121  0.47164080  1  0  0.9401  0  0.421396  0  0  0.885754  0  0.618868  0  0  0.900309  0  0.595508  0  0  0.777269  0.874915  0  0.635579  0
K  K1  1  0.05044541  0.24762808  0.52835560  1  0  0.940093  0  0.421411  0  0  0.885752  0  0.618876  0  0  0.900314  0  0.595501  0  0  0.777269  0.874912  0  0.63559  0
H  H2  1  0.01505181  0.10807505  0.10258940  1  0  0.380785  0  0.907473  0  0  0.34753  0  0.991391  0  0  0.361263  0  0.977  0  0  0.314378  0.33795  0  1.00132  0
H  H3  1  0.98495322  0.89192823  0.89740957  1  0  0.380782  0  0.907455  0  0  0.347543  0  0.991354  0  0  0.361277  0  0.97696  0  0  0.314372  0.337962  0  1.001282  0
C  C4  1  0.82815451  0.38906537  0.03182474  1  0  -0.138333  0  3.67796  0  0  -0.170743  0  3.955298  0  0  -0.187251  0  3.976672  0  0  0.058671  -0.16034  0  3.941222  0
C  C5  1  0.17184199  0.61093652  0.96817509  1  0  -0.138316  0  3.678187  0  0  -0.170671  0  3.955464  0  0  -0.18718  0  3.976842  0  0  0.058697  -0.160258  0  3.941375  0
C  C6  1  0.79605847  0.26457045  0.19558902  1  0  0.353611  0  3.761818  0  0  0.320306  0  4.053445  0  0  0.348022  0  4.059131  0  0  0.129831  0.302044  0  4.049104  0
C  C7  1  0.20394155  0.73542880  0.80441069  1  0  0.353577  0  3.761831  0  0  0.32023  0  4.053471  0  0  0.347948  0  4.059158  0  0  0.129802  0.301968  0  4.049132  0
C  C8  1  0.63118599  0.30446739  0.32834103  1  0  -0.178382  0  3.566696  0  0  -0.213925  0  3.83566  0  0  -0.234953  0  3.854864  0  0  0.053908  -0.200278  0  3.822809  0
C  C9  1  0.36881432  0.69553054  0.67165905  1  0  -0.178369  0  3.56665  0  0  -0.213885  0  3.835598  0  0  -0.234917  0  3.854804  0  0  0.053942  -0.200241  0  3.822747  0
C  C10  1  0.48415789  0.46858861  0.31166541  1  0  0.388312  0  3.868894  0  0  0.367394  0  4.147742  0  0  0.394062  0  4.148711  0  0  0.14245  0.349515  0  4.146641  0
C  C11  1  0.51584096  0.53140932  0.68833838  1  0  0.388356  0  3.868899  0  0  0.367435  0  4.147718  0  0  0.394107  0  4.148677  0  0  0.14245  0.349556  0  4.146613  0
C  C12  1  0.53720505  0.59435447  0.14534905  1  0  -0.058613  0  3.688631  0  0  -0.082661  0  3.944483  0  0  -0.08688  0  3.955623  0  0  0.097145  -0.080049  0  3.937018  0
C  C13  1  0.46279233  0.40564343  0.85465192  1  0  -0.058492  0  3.688786  0  0  -0.082568  0  3.944555  0  0  -0.08677  0  3.955666  0  0  0.097167  -0.079962  0  3.937089  0
C  C14  1  0.69739562  0.55894092  0.00759812  1  0  0.118617  0  3.908977  0  0  0.098879  0  4.197529  0  0  0.109017  0  4.215465  0  0  0.100328  0.09246  0  4.185365  0
C  C15  1  0.30259970  0.44105962  0.99240145  1  0  0.118462  0  3.909078  0  0  0.098678  0  4.197643  0  0  0.108815  0  4.21558  0  0  0.100312  0.092261  0  4.18548  0
N  N16  1  0.43167788  0.75595092  0.09486024  1  0  0.338986  0  3.68759  0  0  0.377419  0  3.963128  0  0  0.395943  0  3.977676  0  0  0.006874  0.36485  0  3.953501  0
N  N17  1  0.56831127  0.24405758  0.90514381  1  0  0.338743  0  3.687646  0  0  0.377395  0  3.962889  0  0  0.395918  0  3.977443  0  0  0.00691  0.364828  0  3.95326  0
N  N18  1  0.69707612  0.69563933  0.87075663  1  0  -0.160858  0  2.815796  0  0  -0.172518  0  3.127059  0  0  -0.176605  0  3.133823  0  0  -0.205023  -0.169855  0  3.122468  0
N  N19  1  0.30291950  0.30435988  0.12924223  1  0  -0.160753  0  2.815814  0  0  -0.172407  0  3.127099  0  0  -0.176487  0  3.133863  0  0  -0.205019  -0.169747  0  3.122511  0
N  N20  1  0.97534146  0.34283302  0.89902843  1  0  0.466356  0  3.966311  0  0  0.519913  0  4.228848  0  0  0.541734  0  4.241478  0  0  0.005845  0.505443  0  4.220175  0
N  N21  1  0.02465798  0.65716887  0.10096942  1  0  0.466356  0  3.96656  0  0  0.519928  0  4.229055  0  0  0.541749  0  4.241685  0  0  0.005832  0.505456  0  4.220384  0
N  N22  1  0.60379659  0.17248376  0.48731525  1  0  0.5232  0  3.957688  0  0  0.594051  0  4.192981  0  0  0.618978  0  4.199531  0  0  0.036692  0.577257  0  4.18868  0
N  N23  1  0.39620520  0.82751417  0.51268330  1  0  0.523258  0  3.957699  0  0  0.594091  0  4.193008  0  0  0.619018  0  4.199558  0  0  0.036719  0.577298  0  4.188708  0
O  O24  1  0.28056520  0.84885857  0.15594199  1  0  -0.289471  0  1.892933  0  0  -0.283606  0  2.115847  0  0  -0.301396  0  2.117181  0  0  -0.112628  -0.271571  0  2.114916  0
O  O25  1  0.71944452  0.15113675  0.84405619  1  0  -0.289509  0  1.892631  0  0  -0.283736  0  2.115454  0  0  -0.301535  0  2.116791  0  0  -0.112787  -0.271694  0  2.114519  0
O  O26  1  0.54037897  0.82514981  0.91059010  1  0  -0.076659  0  2.041186  0  0  -0.038911  0  2.282833  0  0  -0.046173  0  2.283418  0  0  0.039903  -0.034142  0  2.282363  0
O  O27  1  0.45961753  0.17485208  0.08941191  1  0  -0.076535  0  2.041253  0  0  -0.038862  0  2.282872  0  0  -0.046133  0  2.283463  0  0  0.039949  -0.034096  0  2.282405  0
O  O28  1  0.91552335  0.10792898  0.21918774  1  0  -0.465782  0  2.191272  0  0  -0.423149  0  2.426444  0  0  -0.442892  0  2.414493  0  0  -0.32769  -0.4094  0  2.434121  0
O  O29  1  0.08447933  0.89207162  0.78081179  1  0  -0.465734  0  2.191235  0  0  -0.423102  0  2.426389  0  0  -0.442846  0  2.414438  0  0  -0.327654  -0.409354  0  2.434065  0
O  O30  1  0.32973119  0.50603851  0.42061060  1  0  -0.52393  0  1.988059  0  0  -0.504783  0  2.227404  0  0  -0.523045  0  2.222811  0  0  -0.339326  -0.491751  0  2.229957  0
O  O31  1  0.67027178  0.49396078  0.57939257  1  0  -0.523964  0  1.98808  0  0  -0.504807  0  2.227387  0  0  -0.52307  0  2.222788  0  0  -0.339317  -0.491779  0  2.229944  0
O  O32  1  0.09238760  0.18958997  0.92257355  1  0  -0.40228  0  1.80291  0  0  -0.392044  0  2.01797  0  0  -0.406578  0  2.012578  0  0  -0.168278  -0.382068  0  2.021517  0
O  O33  1  0.90761183  0.81041194  0.07742648  1  0  -0.402263  0  1.802933  0  0  -0.392038  0  2.017971  0  0  -0.406569  0  2.012575  0  0  -0.168271  -0.382062  0  2.021518  0
O  O34  1  0.99422298  0.44958083  0.75590783  1  0  -0.432712  0  1.830064  0  0  -0.428917  0  2.065262  0  0  -0.441499  0  2.062457  0  0  -0.213402  -0.419984  0  2.067041  0
O  O35  1  0.00577675  0.55041974  0.24409040  1  0  -0.432744  0  1.830172  0  0  -0.428967  0  2.06537  0  0  -0.441551  0  2.062562  0  0  -0.213415  -0.420033  0  2.067152  0
O  O36  1  0.43078442  0.15130944  0.57417686  1  0  -0.359041  0  1.783275  0  0  -0.368298  0  1.996888  0  0  -0.378468  0  1.989465  0  0  -0.171734  -0.36141  0  2.002122  0
O  O37  1  0.56921795  0.84868583  0.42582245  1  0  -0.359034  0  1.783326  0  0  -0.368298  0  1.996952  0  0  -0.378469  0  1.989529  0  0  -0.171721  -0.361409  0  2.002186  0
O  O38  1  0.75555896  0.08420383  0.53389007  1  0  -0.423893  0  1.808899  0  0  -0.431674  0  2.032337  0  0  -0.443578  0  2.02444  0  0  -0.22521  -0.42357  0  2.037855  0
O  O39  1  0.24444342  0.91579810  0.46610907  1  0  -0.423928  0  1.80888  0  0  -0.431726  0  2.032365  0  0  -0.443629  0  2.024468  0  0  -0.22524  -0.423619  0  2.037883  0
