# generated using pymatgen
data_CuH10C10(NO)6
_symmetry_space_group_name_H-M   'P 1'
_cell_length_a   5.84355286
_cell_length_b   7.56719743
_cell_length_c   8.86849479
_cell_angle_alpha   82.65501330
_cell_angle_beta   80.83957983
_cell_angle_gamma   69.07874557
_symmetry_Int_Tables_number   1
_chemical_formula_structural   CuH10C10(NO)6
_chemical_formula_sum   'Cu1 H10 C10 N6 O6'
_cell_volume   360.55956532
_cell_formula_units_Z   1
loop_
 _symmetry_equiv_pos_site_id
 _symmetry_equiv_pos_as_xyz
  1  'x, y, z'
loop_
 _atom_site_type_symbol
 _atom_site_label
 _atom_site_symmetry_multiplicity
 _atom_site_fract_x
 _atom_site_fract_y
 _atom_site_fract_z
 _atom_site_occupancy
 _atom_site_hle17_ddec_charge
 _atom_site_hle17_ddec_spin_density
 _atom_site_hle17_ddec_sum_bond_order
 _atom_site_hle17_magmom
 _atom_site_hse06_10hf_ddec_charge
 _atom_site_hse06_10hf_ddec_spin_density
 _atom_site_hse06_10hf_ddec_sum_bond_order
 _atom_site_hse06_10hf_magmom
 _atom_site_hse06_ddec_charge
 _atom_site_hse06_ddec_spin_density
 _atom_site_hse06_ddec_sum_bond_order
 _atom_site_hse06_magmom
 _atom_site_pbe_cm5_charge
 _atom_site_pbe_ddec_charge
 _atom_site_pbe_ddec_spin_density
 _atom_site_pbe_ddec_sum_bond_order
 _atom_site_pbe_magmom
Cu  Cu0  1  0.49999556  0.50000172  0.49999822  1  0.815645  -0.663877  1.749827  -0.482  0.786572  -0.755409  2.12926  -0.596  0.884198  -0.826618  2.058718  -0.687  0.7471  0.726844  -0.704751  2.178058  -0.538
H  H1  1  0.17046723  0.51571627  0.29567474  1  0.136807  0.000509  0.974963  0.0  0.14996  0.000432  1.048455  0.0  0.151178  0.000441  1.047898  0.0  0.09619  0.148762  0.000404  1.049274  0.0
H  H2  1  0.82952061  0.48430989  0.70431964  1  0.136651  0.00051  0.97504  0.0  0.149837  0.000432  1.048511  0.0  0.151054  0.000441  1.047958  0.0  0.096154  0.14864  0.000404  1.049325  0.0
H  H3  1  0.41032698  0.40115025  0.15480543  1  0.146696  0.000359  0.948116  0.0  0.163699  0.000118  1.012968  0.0  0.166337  0.000162  1.011797  0.0  0.101532  0.161826  6.6e-05  1.013814  0.0
H  H4  1  0.58964917  0.59886311  0.84519348  1  0.146727  0.00036  0.947949  0.0  0.16368  0.000118  1.012885  0.0  0.16632  0.000162  1.011717  0.0  0.101537  0.161807  6.6e-05  1.013724  0.0
H  H5  1  0.14459509  0.58836258  0.09642099  1  0.135394  0.000108  0.926172  0.0  0.156892  5.1e-05  0.979892  0.0  0.159467  6e-05  0.978954  0.0  0.098742  0.155083  3.5e-05  0.980545  0.0
H  H6  1  0.85538941  0.41166356  0.90357141  1  0.135375  0.000107  0.926262  0.0  0.156872  5.1e-05  0.979981  0.0  0.159449  6.1e-05  0.979045  0.0  0.098755  0.155063  3.5e-05  0.980633  0.0
H  H7  1  0.73477856  0.02503570  0.18735439  1  0.137492  -0.000293  0.968817  0.0  0.134006  -0.000557  1.047636  0.0  0.140401  -0.000415  1.042517  0.0  0.113209  0.129275  -0.000674  1.051602  0.0
H  H8  1  0.26524427  0.97495077  0.81264453  1  0.137452  -0.000292  0.9688  0.0  0.133976  -0.000557  1.047633  0.0  0.14037  -0.000415  1.042512  0.0  0.113207  0.129248  -0.000675  1.051595  0.0
H  H9  1  0.71704767  0.78846407  0.41167742  1  0.099334  -0.001172  0.945352  -0.002  0.104988  -0.000817  1.01189  -0.002  0.107769  -0.000538  1.007501  -0.001  0.124654  0.102544  -0.001032  1.015437  -0.002
H  H10  1  0.28295824  0.21152946  0.58831993  1  0.099348  -0.001172  0.945462  -0.002  0.104988  -0.000817  1.012018  -0.002  0.107769  -0.000538  1.007627  -0.001  0.124666  0.102543  -0.001032  1.015565  -0.002
C  C11  1  0.39451859  0.67961725  0.18736933  1  0.492596  0.00888  3.675081  0.005  0.487408  0.0019  3.931057  0.001  0.505957  0.00311  3.94473  0.002  0.259452  0.475102  0.001008  3.921885  0.0
C  C12  1  0.60548143  0.32040468  0.81262673  1  0.492489  0.008899  3.675095  0.005  0.487379  0.001902  3.930975  0.001  0.505896  0.003112  3.944699  0.002  0.259349  0.475073  0.00101  3.921814  0.0
C  C13  1  0.27102786  0.53881738  0.18392772  1  -0.42073  0.000278  3.675723  0.0  -0.506044  0.000225  3.912102  0.0  -0.511151  0.000272  3.917483  0.0  -0.243996  -0.502259  0.000176  3.90851  0.0
C  C14  1  0.72895655  0.46118043  0.81608113  1  -0.4205  0.000276  3.676045  0.0  -0.50582  0.000226  3.912431  0.0  -0.510926  0.000272  3.917831  0.0  -0.24391  -0.502036  0.000177  3.908828  0.0
C  C15  1  0.50759413  0.92963341  0.06703043  1  0.232519  0.007302  3.728953  0.005  0.228867  0.002816  3.972523  0.002  0.239919  0.003622  3.987102  0.002  0.14565  0.221242  0.002083  3.963085  0.001
C  C16  1  0.49241467  0.07035730  0.93296923  1  0.232565  0.007315  3.728805  0.005  0.228997  0.002816  3.972326  0.002  0.24005  0.003624  3.986904  0.002  0.145746  0.221378  0.002084  3.962882  0.001
C  C17  1  0.63622910  0.92749387  0.18743354  1  -0.165431  -0.008952  3.639482  -0.01  -0.187746  -0.003988  3.895006  -0.005  -0.198082  -0.003431  3.910412  -0.004  -0.069694  -0.181437  -0.004405  3.885402  -0.005
C  C18  1  0.36377985  0.07250819  0.81256381  1  -0.165337  -0.008963  3.639543  -0.01  -0.187688  -0.003988  3.895076  -0.005  -0.198022  -0.003432  3.91048  -0.004  -0.069716  -0.181379  -0.004406  3.885465  -0.005
C  C19  1  0.62741309  0.79666633  0.31075485  1  0.199215  0.009756  3.636506  0.006  0.162824  0.00271  3.901129  0.002  0.176693  0.004194  3.916147  0.003  0.06996  0.153978  0.001618  3.891688  0.001
C  C20  1  0.37259458  0.20332008  0.68923744  1  0.199156  0.009767  3.636493  0.006  0.162783  0.002709  3.901126  0.002  0.176655  0.004194  3.916136  0.003  0.069932  0.153942  0.001617  3.891688  0.001
N  N21  1  0.50790267  0.67374562  0.31140824  1  -0.397931  -0.073137  3.248587  -0.093  -0.352937  -0.050386  3.540547  -0.068  -0.38904  -0.042465  3.560729  -0.061  -0.347182  -0.332041  -0.053262  3.529421  -0.068
N  N22  1  0.49209018  0.32625358  0.68859187  1  -0.397897  -0.073179  3.248414  -0.093  -0.35293  -0.050403  3.540338  -0.068  -0.389024  -0.042477  3.560533  -0.061  -0.347128  -0.332048  -0.053281  3.529233  -0.068
N  N23  1  0.39098455  0.80517491  0.06695776  1  -0.39548  -0.01692  2.976433  -0.02  -0.366055  -0.00691  3.228478  -0.009  -0.3834  -0.004722  3.239961  -0.006  -0.29641  -0.354045  -0.00917  3.220476  -0.011
N  N24  1  0.60902999  0.19482576  0.93304379  1  -0.395472  -0.01694  2.97583  -0.02  -0.366107  -0.006913  3.227848  -0.009  -0.383443  -0.004725  3.239345  -0.006  -0.296383  -0.354097  -0.009176  3.219848  -0.011
N  N25  1  0.09940274  0.78119501  0.61671461  1  0.679345  0.007352  4.129171  0.007  0.712068  0.003027  4.431007  0.004  0.744041  0.002691  4.437029  0.003  0.099675  0.68972  0.003248  4.426862  0.004
N  N26  1  0.90058528  0.21879142  0.38329059  1  0.67904  0.007347  4.129435  0.007  0.711856  0.003024  4.431177  0.004  0.743836  0.002689  4.437198  0.003  0.099554  0.689508  0.003246  4.427031  0.004
O  O27  1  0.33816095  0.73065570  0.62145697  1  -0.4551  -0.095686  1.832531  -0.128  -0.454578  -0.067708  2.093032  -0.099  -0.491657  -0.050806  2.088861  -0.081  -0.202598  -0.430013  -0.078587  2.096313  -0.109
O  O28  1  0.66183997  0.26933644  0.37854884  1  -0.454873  -0.095646  1.832647  -0.128  -0.454417  -0.067685  2.093127  -0.099  -0.49149  -0.05079  2.088958  -0.081  -0.202488  -0.429853  -0.078558  2.096401  -0.109
O  O29  1  0.02650487  0.67916062  0.54817511  1  -0.450424  0.005379  1.804268  0.003  -0.448107  0.004031  2.033486  0.002  -0.468069  0.00431  2.026569  0.003  -0.169623  -0.434009  0.002856  2.038485  0.001
O  O30  1  0.97349563  0.32082308  0.45184626  1  -0.450334  0.005376  1.804095  0.003  -0.448085  0.004029  2.033295  0.002  -0.468076  0.00431  2.026428  0.003  -0.16966  -0.43398  0.002854  2.038283  0.001
O  O31  1  0.03893832  0.07548030  0.31978162  1  -0.382188  -0.011822  1.755837  -0.016  -0.378551  -0.007239  1.954745  -0.01  -0.392471  -0.003176  1.950952  -0.005  -0.15313  -0.367171  -0.011986  1.956657  -0.016
O  O32  1  0.96106095  0.92452032  0.68021556  1  -0.382148  -0.011829  1.755737  -0.016  -0.378586  -0.007242  1.954771  -0.01  -0.392509  -0.003177  1.950981  -0.005  -0.153148  -0.36721  -0.01199  1.956693  -0.016
