# generated using pymatgen
data_CaH6(CO)6
_symmetry_space_group_name_H-M   'P 1'
_cell_length_a   7.30457687
_cell_length_b   7.96933559
_cell_length_c   8.76733250
_cell_angle_alpha   74.75062943
_cell_angle_beta   89.99606041
_cell_angle_gamma   62.74169013
_symmetry_Int_Tables_number   1
_chemical_formula_structural   CaH6(CO)6
_chemical_formula_sum   'Ca2 H12 C12 O12'
_cell_volume   433.38452782
_cell_formula_units_Z   2
loop_
 _symmetry_equiv_pos_site_id
 _symmetry_equiv_pos_as_xyz
  1  'x, y, z'
loop_
 _atom_site_type_symbol
 _atom_site_label
 _atom_site_symmetry_multiplicity
 _atom_site_fract_x
 _atom_site_fract_y
 _atom_site_fract_z
 _atom_site_occupancy
 _atom_site_pbe_bader_charge
 _atom_site_pbe_bader_spin_density
 _atom_site_pbe_cm5_charge
 _atom_site_pbe_ddec_charge
 _atom_site_pbe_ddec_spin_density
 _atom_site_pbe_ddec_sum_bond_order
 _atom_site_pbe_magmom
Ca  Ca0  1  0.22448222  0.55108424  0.08733881  1  1.641622  0  0.847408  1.347309  0  1.45488  0
Ca  Ca1  1  0.77554015  0.44892944  0.91267222  1  1.641448  0  0.847433  1.347303  0  1.454933  0
H  H2  1  0.14472655  0.71089743  0.37551753  1  0.619584  0  0.335295  0.413898  0  0.866666  0
H  H3  1  0.85526417  0.28910285  0.62448193  1  0.619573  0  0.335311  0.413928  0  0.866657  0
H  H4  1  0.04192126  0.91578265  0.24163742  1  0.634531  0  0.296824  0.388123  0  0.946553  0
H  H5  1  0.95808265  0.08421317  0.75835856  1  0.634492  0  0.296828  0.388102  0  0.946566  0
H  H6  1  0.15343020  0.99945687  0.99986110  1  0.048508  0  0.118486  0.141863  0  1.030972  0
H  H7  1  0.84657233  0.00053896  0.00013715  1  0.048059  0  0.118485  0.141879  0  1.030975  0
H  H8  1  0.84754597  0.00065785  0.50033811  1  0.031854  0  0.097238  0.122918  0  1.051037  0
H  H9  1  0.15245309  0.99933946  0.49965979  1  0.031628  0  0.097221  0.122898  0  1.05108  0
H  H10  1  0.23212192  0.75610393  0.76644141  1  0.638308  0  0.29719  0.376294  0  0.968589  0
H  H11  1  0.98805127  0.24369646  0.23348842  1  0.638904  0  0.296927  0.375652  0  0.969553  0
H  H12  1  0.76786870  0.24389932  0.23355961  1  0.638228  0  0.29721  0.376381  0  0.968489  0
H  H13  1  0.01194618  0.75630682  0.76651601  1  0.638901  0  0.29694  0.375655  0  0.969555  0
C  C14  1  0.30630371  0.17769417  0.97608093  1  0.723789  0  0.129569  0.327064  0  4.081101  0
C  C15  1  0.48454241  0.82206856  0.02390986  1  0.711804  0  0.12902  0.328281  0  4.080287  0
C  C16  1  0.69370441  0.82229870  0.02391690  1  0.723749  0  0.129576  0.327016  0  4.081123  0
C  C17  1  0.51546149  0.17792728  0.97608954  1  0.71205  0  0.129034  0.328239  0  4.080388  0
C  C18  1  0.30170213  0.99974624  0.99992142  1  0.058402  0  -0.13436  -0.394242  0  4.013298  0
C  C19  1  0.69829977  0.00024812  0.00007720  1  0.058795  0  -0.134413  -0.394306  0  4.013313  0
C  C20  1  0.69852174  0.00035347  0.50025754  1  -0.053025  0  -0.152895  -0.410118  0  4.032146  0
C  C21  1  0.30147530  0.99964240  0.49974755  1  -0.053103  0  -0.152907  -0.410149  0  4.032232  0
C  C22  1  0.52528001  0.15888662  0.39606047  1  0.755874  0  0.120148  0.321232  0  4.081645  0
C  C23  1  0.68410604  0.84146043  0.60412985  1  0.771588  0  0.120263  0.320835  0  4.083896  0
C  C24  1  0.47471208  0.84111367  0.60394127  1  0.755951  0  0.120169  0.321199  0  4.081747  0
C  C25  1  0.31589354  0.15854133  0.39586925  1  0.771501  0  0.12025  0.320789  0  4.083886  0
O  O26  1  0.09968265  0.80109746  0.81463318  1  -1.295602  0  -0.591798  -0.796591  0  2.061148  0
O  O27  1  0.90031196  0.19890875  0.18536712  1  -1.295582  0  -0.591834  -0.796728  0  2.061113  0
O  O28  1  0.14621319  0.34501184  0.95569684  1  -1.180248  0  -0.348674  -0.537407  0  2.321706  0
O  O29  1  0.49194460  0.65462314  0.04435329  1  -1.164696  0  -0.34846  -0.537989  0  2.321759  0
O  O30  1  0.85379820  0.65498545  0.04429650  1  -1.180337  0  -0.34867  -0.53737  0  2.32171  0
O  O31  1  0.50805445  0.34537418  0.95564689  1  -1.164902  0  -0.348391  -0.537902  0  2.321719  0
O  O32  1  0.11460148  0.77059534  0.26053579  1  -1.264407  0  -0.596922  -0.792669  0  1.989892  0
O  O33  1  0.88540716  0.22940197  0.73946211  1  -1.264356  0  -0.596952  -0.792695  0  1.989908  0
O  O34  1  0.52825534  0.30658541  0.29665995  1  -1.157908  0  -0.307792  -0.497715  0  2.242279  0
O  O35  1  0.83471350  0.69404728  0.70361739  1  -1.158648  0  -0.307496  -0.496684  0  2.243383  0
O  O36  1  0.47174012  0.69341635  0.70333915  1  -1.157973  0  -0.307795  -0.497644  0  2.24223  0
O  O37  1  0.16528208  0.30595151  0.29638128  1  -1.158356  0  -0.307467  -0.496649  0  2.243286  0
