# generated using pymatgen
data_AgH3C5(NO2)2
_symmetry_space_group_name_H-M   'P 1'
_cell_length_a   6.10077396
_cell_length_b   4.92051699
_cell_length_c   12.25293910
_cell_angle_alpha   82.86951481
_cell_angle_beta   105.66507307
_cell_angle_gamma   106.77689111
_symmetry_Int_Tables_number   1
_chemical_formula_structural   AgH3C5(NO2)2
_chemical_formula_sum   'Ag2 H6 C10 N4 O8'
_cell_volume   338.65806255
_cell_formula_units_Z   2
loop_
 _symmetry_equiv_pos_site_id
 _symmetry_equiv_pos_as_xyz
  1  'x, y, z'
loop_
 _atom_site_type_symbol
 _atom_site_label
 _atom_site_symmetry_multiplicity
 _atom_site_fract_x
 _atom_site_fract_y
 _atom_site_fract_z
 _atom_site_occupancy
 _atom_site_hle17_bader_spin_density
 _atom_site_hle17_ddec_charge
 _atom_site_hle17_ddec_spin_density
 _atom_site_hle17_ddec_sum_bond_order
 _atom_site_hle17_magmom
 _atom_site_hse06_10hf_bader_spin_density
 _atom_site_hse06_10hf_ddec_charge
 _atom_site_hse06_10hf_ddec_spin_density
 _atom_site_hse06_10hf_ddec_sum_bond_order
 _atom_site_hse06_10hf_magmom
 _atom_site_hse06_bader_spin_density
 _atom_site_hse06_ddec_charge
 _atom_site_hse06_ddec_spin_density
 _atom_site_hse06_ddec_sum_bond_order
 _atom_site_hse06_magmom
 _atom_site_pbe_bader_spin_density
 _atom_site_pbe_cm5_charge
 _atom_site_pbe_ddec_charge
 _atom_site_pbe_ddec_spin_density
 _atom_site_pbe_ddec_sum_bond_order
 _atom_site_pbe_magmom
Ag  Ag0  1  0.21354129  0.99488440  0.07798884  1  0  0.60991  0  1.359295  0  0  0.492463  0  1.818913  0  0  0.527366  0  1.759376  0  0  0.424287  0.468374  0  1.86013  0
Ag  Ag1  1  0.78646896  0.00511575  0.92201650  1  0  0.609916  0  1.359244  0  0  0.49251  0  1.81884  0  0  0.52741  0  1.759304  0  0  0.424285  0.468419  0  1.860048  0
H  H2  1  0.17598917  0.50466927  0.32366678  1  0  0.34194  0  0.834224  0  0  0.324848  0  0.886341  0  0  0.333131  0  0.879927  0  0  0.3392  0.318901  0  0.891161  0
H  H3  1  0.82401149  0.49533669  0.67633269  1  0  0.341947  0  0.834287  0  0  0.32484  0  0.886396  0  0  0.333122  0  0.879982  0  0  0.33922  0.318891  0  0.891219  0
H  H4  1  0.80869534  0.96512177  0.42539118  1  0  0.339258  0  0.901784  0  0  0.313958  0  0.971015  0  0  0.324589  0  0.961739  0  0  0.31117  0.30653  0  0.977445  0
H  H5  1  0.19129873  0.03488074  0.57460531  1  0  0.339304  0  0.901742  0  0  0.314026  0  0.970933  0  0  0.324657  0  0.961654  0  0  0.31121  0.306592  0  0.977373  0
H  H6  1  0.52822646  0.56547098  0.11011963  1  0  0.151887  0  0.965108  0  0  0.156956  0  1.035176  0  0  0.162048  0  1.031353  0  0  0.110687  0.153197  0  1.038349  0
H  H7  1  0.47177663  0.43453280  0.88987845  1  0  0.151863  0  0.965093  0  0  0.15694  0  1.035173  0  0  0.162037  0  1.031345  0  0  0.110664  0.153176  0  1.038345  0
C  C8  1  0.01807222  0.73600562  0.39284780  1  0  0.751509  0  3.830285  0  0  0.678433  0  4.14071  0  0  0.713189  0  4.136562  0  0  0.346212  0.654961  0  4.143032  0
C  C9  1  0.98193263  0.26400194  0.60715365  1  0  0.751479  0  3.830203  0  0  0.678342  0  4.140659  0  0  0.713092  0  4.13652  0  0  0.34618  0.654883  0  4.142963  0
C  C10  1  0.63714094  0.78158447  0.26941806  1  0  0.61785  0  3.813042  0  0  0.578815  0  4.084172  0  0  0.610273  0  4.083062  0  0  0.232566  0.557464  0  4.084381  0
C  C11  1  0.36285853  0.21841064  0.73058233  1  0  0.61784  0  3.813226  0  0  0.578885  0  4.084251  0  0  0.610334  0  4.083157  0  0  0.232585  0.557532  0  4.084458  0
C  C12  1  0.66241355  0.60893930  0.18929167  1  0  -0.311587  0  3.653067  0  0  -0.343522  0  3.919068  0  0  -0.357228  0  3.934389  0  0  -0.1055  -0.334489  0  3.908978  0
C  C13  1  0.33758779  0.39106071  0.81070304  1  0  -0.311553  0  3.653167  0  0  -0.343566  0  3.919261  0  0  -0.357271  0  3.93458  0  0  -0.105539  -0.334527  0  3.90916  0
C  C14  1  0.85625310  0.50719135  0.21411029  1  0  0.177898  0  3.766189  0  0  0.164229  0  4.02933  0  0  0.173007  0  4.044279  0  0  0.116741  0.15822  0  4.019381  0
C  C15  1  0.14374531  0.49281264  0.78588903  1  0  0.177877  0  3.766285  0  0  0.164147  0  4.029425  0  0  0.172918  0  4.044386  0  0  0.116776  0.158128  0  4.019471  0
C  C16  1  0.90157460  0.32616874  0.13628799  1  0  0.577157  0  3.982187  0  0  0.52701  0  4.271852  0  0  0.5607  0  4.267186  0  0  0.204205  0.50403  0  4.27429  0
C  C17  1  0.09842635  0.67383037  0.86371410  1  0  0.577222  0  3.982087  0  0  0.527135  0  4.271669  0  0  0.560828  0  4.266999  0  0  0.204271  0.504173  0  4.274089  0
N  N18  1  0.02517979  0.56544625  0.31367557  1  0  -0.429369  0  3.347595  0  0  -0.371936  0  3.588941  0  0  -0.394631  0  3.59721  0  0  -0.377973  -0.356672  0  3.583584  0
N  N19  1  0.97482009  0.43456174  0.68632544  1  0  -0.4294  0  3.347779  0  0  -0.371837  0  3.589031  0  0  -0.39452  0  3.597294  0  0  -0.378041  -0.356584  0  3.583676  0
N  N20  1  0.81847610  0.83176826  0.36749087  1  0  -0.5186  0  3.218183  0  0  -0.45495  0  3.4527  0  0  -0.480592  0  3.454081  0  0  -0.378526  -0.437597  0  3.451335  0
N  N21  1  0.18152457  0.16823109  0.63250955  1  0  -0.518688  0  3.218234  0  0  -0.455052  0  3.452727  0  0  -0.480691  0  3.45411  0  0  -0.378563  -0.437705  0  3.451357  0
O  O22  1  0.09449972  0.25663756  0.17165643  1  0  -0.578556  0  2.107178  0  0  -0.509582  0  2.372704  0  0  -0.539332  0  2.36259  0  0  -0.309973  -0.488848  0  2.378969  0
O  O23  1  0.90550770  0.74337431  0.82834352  1  0  -0.578575  0  2.107116  0  0  -0.509642  0  2.372661  0  0  -0.539393  0  2.362546  0  0  -0.309996  -0.488915  0  2.378917  0
O  O24  1  0.74288619  0.26152895  0.04520246  1  0  -0.598461  0  2.145056  0  0  -0.520932  0  2.420999  0  0  -0.553228  0  2.410966  0  0  -0.309273  -0.498529  0  2.427402  0
O  O25  1  0.25711042  0.73845288  0.95480203  1  0  -0.598463  0  2.144985  0  0  -0.520965  0  2.420949  0  0  -0.553262  0  2.410913  0  0  -0.309318  -0.498579  0  2.427358  0
O  O26  1  0.18016273  0.79633019  0.47981787  1  0  -0.576499  0  1.906768  0  0  -0.536784  0  2.123704  0  0  -0.556677  0  2.11326  0  0  -0.29793  -0.523028  0  2.13046  0
O  O27  1  0.81983778  0.20368250  0.52017982  1  0  -0.576462  0  1.906683  0  0  -0.536711  0  2.123607  0  0  -0.556607  0  2.113174  0  0  -0.297896  -0.522968  0  2.130358  0
O  O28  1  0.46900016  0.88969730  0.25665378  1  0  -0.554342  0  1.980131  0  0  -0.499022  0  2.221677  0  0  -0.52263  0  2.21123  0  0  -0.305873  -0.482505  0  2.228556  0
O  O29  1  0.53099284  0.11028506  0.74334875  1  0  -0.554304  0  1.9801  0  0  -0.499035  0  2.221645  0  0  -0.522639  0  2.211201  0  0  -0.305858  -0.482525  0  2.228523  0
