# generated using pymatgen
data_CuH9C5N3Cl2
_symmetry_space_group_name_H-M   'P 1'
_cell_length_a   5.83616847
_cell_length_b   8.51032794
_cell_length_c   8.89072402
_cell_angle_alpha   79.12383358
_cell_angle_beta   89.39032136
_cell_angle_gamma   80.74386404
_symmetry_Int_Tables_number   1
_chemical_formula_structural   CuH9C5N3Cl2
_chemical_formula_sum   'Cu2 H18 C10 N6 Cl4'
_cell_volume   427.91488343
_cell_formula_units_Z   2
loop_
 _symmetry_equiv_pos_site_id
 _symmetry_equiv_pos_as_xyz
  1  'x, y, z'
loop_
 _atom_site_type_symbol
 _atom_site_label
 _atom_site_symmetry_multiplicity
 _atom_site_fract_x
 _atom_site_fract_y
 _atom_site_fract_z
 _atom_site_occupancy
 _atom_site_hle17_ddec_charge
 _atom_site_hle17_ddec_spin_density
 _atom_site_hle17_ddec_sum_bond_order
 _atom_site_hle17_magmom
 _atom_site_hse06_10hf_ddec_charge
 _atom_site_hse06_10hf_ddec_spin_density
 _atom_site_hse06_10hf_ddec_sum_bond_order
 _atom_site_hse06_10hf_magmom
 _atom_site_hse06_ddec_charge
 _atom_site_hse06_ddec_spin_density
 _atom_site_hse06_ddec_sum_bond_order
 _atom_site_hse06_magmom
 _atom_site_pbe_cm5_charge
 _atom_site_pbe_ddec_charge
 _atom_site_pbe_ddec_spin_density
 _atom_site_pbe_ddec_sum_bond_order
 _atom_site_pbe_magmom
Cu  Cu0  1  0.75421811  0.47039489  0.11792650  1  0.73028  0.652713  1.929869  0.453  0.720849  0.748715  2.314207  0.568  0.805725  0.826007  2.243735  0.648  0.568951  0.671656  0.696553  2.358877  0.519
Cu  Cu1  1  0.24578583  0.52960719  0.88207607  1  0.730275  -0.652707  1.929911  -0.453  0.720873  -0.748717  2.314257  -0.568  0.805751  -0.826  2.243781  -0.648  0.568952  0.671685  -0.696554  2.358904  -0.519
H  H2  1  0.67021272  0.23780901  0.00303675  1  0.284287  -0.000555  0.923626  -0.002  0.274504  0.000598  0.986293  0.0  0.280848  0.000256  0.983455  -0.001  0.268557  0.269599  0.000945  0.989632  0.0
H  H3  1  0.32978890  0.76219554  0.99696205  1  0.284274  0.000559  0.923605  0.002  0.27449  -0.000598  0.986295  0.0  0.280833  -0.000256  0.983455  0.001  0.268544  0.269588  -0.000945  0.989633  0.0
H  H4  1  0.94965549  0.25847359  0.98179345  1  0.278179  -0.000649  0.944081  -0.002  0.266108  0.000499  1.011701  0.0  0.272278  0.000207  1.009073  -0.001  0.263415  0.261216  0.000826  1.015052  0.0
H  H5  1  0.05035358  0.74152851  0.01820794  1  0.278225  0.000651  0.944075  0.002  0.266146  -0.000499  1.011698  0.0  0.272317  -0.000206  1.009065  0.001  0.263435  0.261253  -0.000825  1.015047  0.0
H  H6  1  0.06115218  0.11300179  0.22406510  1  0.059538  0.000213  0.928179  0.001  0.075168  0.000238  0.992247  0.001  0.07512  0.000155  0.991941  0.0  0.098492  0.074835  0.00027  0.992814  0.001
H  H7  1  0.93884604  0.88699543  0.77593949  1  0.059506  -0.000214  0.928067  -0.001  0.075105  -0.000237  0.992182  -0.001  0.075057  -0.000156  0.991877  0.0  0.098464  0.074768  -0.00027  0.992747  -0.001
H  H8  1  0.90242529  0.99241162  0.13329385  1  0.061033  0.008152  0.946046  0.01  0.078056  0.005728  1.006262  0.007  0.077276  0.004119  1.00647  0.005  0.090761  0.078126  0.006496  1.006538  0.008
H  H9  1  0.09757490  0.00759172  0.86670517  1  0.061054  -0.008156  0.945958  -0.01  0.078074  -0.005729  1.006168  -0.007  0.077292  -0.00412  1.006375  -0.005  0.090756  0.078107  -0.006498  1.006486  -0.008
H  H10  1  0.53923590  0.11191602  0.25966222  1  0.093838  -9.7e-05  0.924843  0.0  0.111003  3.4e-05  0.984706  0.0  0.112606  2.9e-05  0.983445  0.0  0.093045  0.109673  3.6e-05  0.985905  0.0
H  H11  1  0.46076559  0.88808134  0.74032994  1  0.093885  0.000101  0.924792  0.0  0.111008  -3.4e-05  0.98471  0.0  0.112606  -3e-05  0.983451  0.0  0.093063  0.109684  -3.5e-05  0.985899  0.0
H  H12  1  0.74722317  0.97479051  0.38335290  1  0.092115  -0.000204  0.928986  0.0  0.108276  -9e-06  0.988835  0.0  0.109125  -2.7e-05  0.989758  0.0  0.097395  0.107629  5.8e-05  0.988335  0.0
H  H13  1  0.25276984  0.02521408  0.61664261  1  0.092168  0.000203  0.928904  0.0  0.108391  9e-06  0.988681  0.0  0.109236  2.7e-05  0.989601  0.0  0.097425  0.107739  -5.8e-05  0.988189  0.0
H  H14  1  0.70628446  0.10807066  0.65376628  1  0.113124  0.000398  0.968236  0.001  0.124682  0.000294  1.028381  0.001  0.127616  0.000228  1.026739  0.001  0.117892  0.122263  0.000331  1.030297  0.001
H  H15  1  0.29372340  0.89192177  0.34623453  1  0.113071  -0.0004  0.968272  -0.001  0.124622  -0.000293  1.02843  -0.001  0.127556  -0.000228  1.026787  -0.001  0.11786  0.122204  -0.000331  1.030351  -0.001
H  H16  1  0.74443795  0.39529369  0.69486137  1  0.29555  0.001188  0.918259  0.001  0.278386  0.001062  0.98186  0.001  0.286206  0.000838  0.975867  0.001  0.290696  0.272634  0.001043  0.986343  0.001
H  H17  1  0.25557284  0.60470109  0.30514462  1  0.295592  -0.00119  0.918332  -0.001  0.27846  -0.001061  0.981871  -0.001  0.286278  -0.000837  0.975883  -0.001  0.290753  0.272714  -0.001043  0.986353  -0.001
H  H18  1  0.77252153  0.58710155  0.44177055  1  0.096357  4.3e-05  0.946691  0.0  0.104428  0.000236  1.010167  0.0  0.106988  0.000175  1.007405  0.0  0.127745  0.102393  0.000299  1.012587  0.0
H  H19  1  0.22748460  0.41289088  0.55822915  1  0.09635  -4.7e-05  0.946612  0.0  0.104413  -0.000236  1.010107  0.0  0.106975  -0.000174  1.007345  0.0  0.127741  0.102379  -0.000299  1.012527  0.0
C  C20  1  0.88901568  0.10378588  0.18107485  1  0.091443  0.000942  3.626487  -0.002  0.03839  0.003164  3.893024  0.001  0.045375  0.001619  3.90555  -0.001  -0.076076  0.034387  0.004197  3.884663  0.002
C  C21  1  0.11098764  0.89621138  0.81892631  1  0.091483  -0.000927  3.626332  0.002  0.038446  -0.003169  3.892884  -0.001  0.045426  -0.001621  3.905405  0.001  -0.076022  0.034464  -0.004197  3.88452  -0.002
C  C22  1  0.71503876  0.09588793  0.31062786  1  -0.189744  0.002676  3.728161  0.003  -0.234548  0.002426  3.977402  0.003  -0.23738  0.001733  3.990673  0.002  -0.159397  -0.232649  0.002587  3.968056  0.003
C  C23  1  0.28495652  0.90411424  0.68936691  1  -0.189873  -0.002685  3.728108  -0.003  -0.234718  -0.002428  3.977358  -0.003  -0.237526  -0.001733  3.990599  -0.002  -0.15945  -0.232819  -0.002588  3.967998  -0.003
C  C24  1  0.72872553  0.22104777  0.40549561  1  0.167497  -0.000151  3.752221  0.0  0.17594  0.000672  4.003851  0.001  0.180768  -0.000136  4.028674  0.0  0.074499  0.17284  0.000968  3.987242  0.001
C  C25  1  0.27126661  0.77895318  0.59450053  1  0.167505  0.000134  3.752089  0.0  0.176023  -0.000669  4.003678  -0.001  0.180847  0.000133  4.028491  0.0  0.074538  0.172931  -0.000968  3.987061  -0.001
C  C26  1  0.72668164  0.20816861  0.56234555  1  -0.072893  0.005392  3.670468  0.005  -0.117041  0.003229  3.927168  0.004  -0.116483  0.00272  3.944721  0.003  -0.006103  -0.11761  0.003257  3.916273  0.004
C  C27  1  0.27331824  0.79182866  0.43765451  1  -0.072754  -0.00538  3.670426  -0.005  -0.116883  -0.00323  3.927119  -0.004  -0.116323  -0.002718  3.944668  -0.003  -0.006091  -0.117458  -0.003257  3.916231  -0.004
C  C28  1  0.76118849  0.45954241  0.45532045  1  0.219174  -0.004376  3.684703  -0.004  0.159338  -0.000371  3.964457  0.0  0.175312  -0.001289  3.977614  -0.001  0.134852  0.148906  0.000275  3.955632  0.0
C  C29  1  0.23880322  0.54046085  0.54468543  1  0.219308  0.004385  3.684475  0.004  0.15954  0.000371  3.964252  0.0  0.175513  0.001289  3.977407  0.001  0.134924  0.149105  -0.000274  3.955426  0.0
N  N30  1  0.81905972  0.24707860  0.06015266  1  -0.575296  0.115268  3.189329  0.138  -0.547533  0.08013  3.447439  0.101  -0.583053  0.066181  3.455865  0.088  -0.639607  -0.526958  0.08518  3.444804  0.103
N  N31  1  0.18094338  0.75292712  0.93984929  1  -0.575313  -0.115289  3.189312  -0.138  -0.547516  -0.080129  3.447325  -0.101  -0.583053  -0.066185  3.455792  -0.088  -0.639618  -0.52694  -0.085184  3.444679  -0.103
N  N32  1  0.74823638  0.35889295  0.59054979  1  -0.273591  0.001528  3.518797  0.001  -0.206686  0.001644  3.751802  0.002  -0.221986  0.001282  3.76626  0.001  -0.38445  -0.195903  0.002506  3.741819  0.002
N  N33  1  0.25176432  0.64110802  0.40944513  1  -0.2738  -0.001528  3.518742  -0.001  -0.206961  -0.001643  3.751813  -0.002  -0.222262  -0.001282  3.766265  -0.001  -0.384534  -0.196182  -0.002506  3.741836  -0.002
N  N34  1  0.75050633  0.37967526  0.34078580  1  -0.401861  0.07092  3.313616  0.087  -0.352679  0.055379  3.610156  0.072  -0.385158  0.04842  3.631357  0.066  -0.38305  -0.332426  0.058499  3.596828  0.074
N  N35  1  0.24948220  0.62032681  0.65921807  1  -0.401919  -0.070899  3.31365  -0.087  -0.352856  -0.055372  3.61028  -0.072  -0.38534  -0.048412  3.631491  -0.066  -0.383114  -0.332603  -0.058491  3.596949  -0.073
Cl  Cl36  1  0.74506538  0.56574750  0.85527103  1  -0.531276  0.108707  1.118547  0.119  -0.537642  0.075435  1.431892  0.084  -0.567725  0.061166  1.405591  0.07  -0.272358  -0.517904  0.084441  1.450648  0.093
Cl  Cl37  1  0.25493708  0.43425341  0.14472838  1  -0.531288  -0.108714  1.118585  -0.119  -0.537668  -0.075435  1.431929  -0.084  -0.567764  -0.061172  1.405653  -0.07  -0.272366  -0.517928  -0.08444  1.450686  -0.093
Cl  Cl38  1  0.68593844  0.73657949  0.15021680  1  -0.537754  0.100465  0.942507  0.112  -0.519  0.067064  1.203893  0.078  -0.543444  0.054669  1.181113  0.066  -0.305259  -0.502705  0.074214  1.220811  0.084
Cl  Cl39  1  0.31406805  0.26341895  0.84978637  1  -0.537749  -0.100469  0.942529  -0.112  -0.518988  -0.067067  1.203891  -0.078  -0.543435  -0.054673  1.181115  -0.066  -0.305259  -0.502692  -0.074217  1.220799  -0.084
