# generated using pymatgen
data_CoH12C12(N4Cl)2
_symmetry_space_group_name_H-M   'P 1'
_cell_length_a   7.24433001
_cell_length_b   7.71553044
_cell_length_c   8.42279154
_cell_angle_alpha   105.20238018
_cell_angle_beta   104.28597743
_cell_angle_gamma   99.50355087
_symmetry_Int_Tables_number   1
_chemical_formula_structural   CoH12C12(N4Cl)2
_chemical_formula_sum   'Co1 H12 C12 N8 Cl2'
_cell_volume   426.75721271
_cell_formula_units_Z   1
loop_
 _symmetry_equiv_pos_site_id
 _symmetry_equiv_pos_as_xyz
  1  'x, y, z'
loop_
 _atom_site_type_symbol
 _atom_site_label
 _atom_site_symmetry_multiplicity
 _atom_site_fract_x
 _atom_site_fract_y
 _atom_site_fract_z
 _atom_site_occupancy
 _atom_site_hle17_ddec_charge
 _atom_site_hle17_ddec_spin_density
 _atom_site_hle17_ddec_sum_bond_order
 _atom_site_hle17_magmom
 _atom_site_hse06_10hf_ddec_charge
 _atom_site_hse06_10hf_ddec_spin_density
 _atom_site_hse06_10hf_ddec_sum_bond_order
 _atom_site_hse06_10hf_magmom
 _atom_site_hse06_ddec_charge
 _atom_site_hse06_ddec_spin_density
 _atom_site_hse06_ddec_sum_bond_order
 _atom_site_hse06_magmom
 _atom_site_pbe_cm5_charge
 _atom_site_pbe_ddec_charge
 _atom_site_pbe_ddec_spin_density
 _atom_site_pbe_ddec_sum_bond_order
 _atom_site_pbe_magmom
Co  Co0  1  0.00000252  0.50000247  0.50000284  1  0.471216  -1.031598  2.748186  -0.916  0.456497  -0.990405  3.182255  -0.907  0.524388  -1.004429  3.114329  -0.936  0.629419  0.413384  -0.970394  3.226321  -0.873
H  H1  1  0.60591567  0.35584402  0.59160899  1  0.112871  0.00024  0.970972  0.0  0.118393  0.000276  1.041064  0.0  0.120616  0.000217  1.038727  0.0  0.11162  0.116515  0.00033  1.043085  0.0
H  H2  1  0.39408890  0.64415835  0.40839575  1  0.112878  0.000239  0.971046  0.0  0.118421  0.000276  1.041115  0.0  0.120646  0.000217  1.038778  0.0  0.111642  0.116542  0.00033  1.04314  0.0
H  H3  1  0.70111811  0.82607546  0.33381067  1  0.109149  0.00013  0.984427  0.0  0.115858  0.000152  1.05404  0.0  0.117423  0.000123  1.053481  0.0  0.119819  0.114647  0.000175  1.054645  0.0
H  H4  1  0.29887733  0.17392611  0.66617666  1  0.109102  0.000126  0.984485  0.0  0.115855  0.000152  1.054068  0.0  0.117421  0.000123  1.053508  0.0  0.119811  0.114638  0.000175  1.054671  0.0
H  H5  1  0.54836349  0.39708326  0.26920778  1  0.120152  -0.000243  0.959085  0.0  0.127305  -0.00023  1.023828  0.0  0.130092  -0.000165  1.021139  0.0  0.117281  0.12498  -0.0003  1.026173  0.0
H  H6  1  0.45164257  0.60291920  0.73079845  1  0.120174  -0.000242  0.959015  0.0  0.127297  -0.00023  1.023779  0.0  0.130084  -0.000166  1.02109  0.0  0.1173  0.124975  -0.000301  1.026117  0.0
H  H7  1  0.81256678  0.66133046  0.95244146  1  0.122604  -6.6e-05  0.996977  0.0  0.12847  -0.000182  1.065598  0.0  0.133216  -0.000113  1.060175  0.0  0.105338  0.124739  -0.00025  1.069705  0.0
H  H8  1  0.18742826  0.33866745  0.04756044  1  0.122545  -6.4e-05  0.997026  0.0  0.128439  -0.000182  1.065622  0.0  0.133186  -0.000113  1.060198  0.0  0.105308  0.124707  -0.00025  1.069734  0.0
H  H9  1  0.95503490  0.11609261  0.33709365  1  0.287861  0.00036  0.931089  0.0  0.265127  0.000242  1.002341  0.0  0.274107  0.000212  0.994509  0.0  0.293306  0.258635  0.000268  1.007979  0.0
H  H10  1  0.04496369  0.88390932  0.66290270  1  0.287841  0.000358  0.930899  0.0  0.265001  0.000242  1.002309  0.0  0.273984  0.000212  0.994476  0.0  0.29327  0.258505  0.000268  1.007947  0.0
H  H11  1  0.06476862  0.65302602  0.22436455  1  0.287782  0.000138  0.885501  0.0  0.272137  0.000113  0.941827  0.0  0.27802  8.7e-05  0.938394  0.0  0.339762  0.267739  0.000131  0.944754  0.0
H  H12  1  0.93522726  0.34697596  0.77563603  1  0.287748  0.000138  0.885476  0.0  0.272129  0.000113  0.941773  0.0  0.278012  8.7e-05  0.93834  0.0  0.339765  0.26773  0.000131  0.944698  0.0
C  C13  1  0.65700477  0.24119258  0.52622772  1  -0.027445  0.007661  3.664326  0.005  -0.068685  0.003379  3.933612  0.002  -0.058872  0.002926  3.945569  0.002  0.013868  -0.075422  0.003623  3.926321  0.003
C  C14  1  0.34300082  0.75880834  0.47377332  1  -0.027475  0.00766  3.664566  0.005  -0.068759  0.003378  3.933841  0.002  -0.058947  0.002929  3.945802  0.002  0.013811  -0.075503  0.003622  3.926544  0.003
C  C15  1  0.58248177  0.04796138  0.48112932  1  -0.023849  -0.000449  3.873868  -0.001  -0.009178  -5.8e-05  4.115738  0.0  -0.01517  -8.3e-05  4.140032  0.0  -0.026415  -0.005571  -0.000102  4.099993  0.0
C  C16  1  0.41752024  0.95203659  0.51886801  1  -0.023922  -0.000446  3.873888  -0.001  -0.009242  -5.8e-05  4.11579  0.0  -0.015234  -8.4e-05  4.140089  0.0  -0.026434  -0.005604  -0.000102  4.100012  0.0
C  C17  1  0.70304487  0.96953581  0.39187621  1  0.017513  0.005216  3.63243  0.003  -0.037323  0.00226  3.895584  0.001  -0.02778  0.001972  3.908358  0.001  0.02288  -0.04356  0.002494  3.887198  0.001
C  C18  1  0.29695376  0.03046616  0.60812134  1  0.017516  0.005221  3.632376  0.003  -0.037383  0.002258  3.895512  0.001  -0.027837  0.001975  3.908287  0.001  0.022905  -0.043613  0.002494  3.887102  0.001
C  C19  1  0.64523149  0.46646764  0.21273944  1  0.002239  0.0131  3.616934  0.009  -0.040665  0.004615  3.885526  0.003  -0.029812  0.003805  3.896422  0.003  0.023371  -0.04839  0.005202  3.879448  0.003
C  C20  1  0.35476767  0.53352915  0.78726658  1  0.002341  0.013081  3.616797  0.009  -0.040504  0.004614  3.885451  0.003  -0.029653  0.003803  3.896348  0.003  0.023398  -0.048243  0.0052  3.879369  0.003
C  C21  1  0.59707220  0.51557068  0.05966345  1  -0.040291  -0.001142  3.873529  -0.002  -0.023012  0.000101  4.114865  0.0  -0.029741  -1.6e-05  4.13985  0.0  -0.028656  -0.018757  0.000138  4.098736  0.0
C  C22  1  0.40293006  0.48442752  0.94034110  1  -0.040398  -0.001138  3.873445  -0.002  -0.023205  0.0001  4.114876  0.0  -0.029936  -1.5e-05  4.139863  0.0  -0.028681  -0.018947  0.000139  4.09875  0.0
C  C23  1  0.77676850  0.60270099  0.04901152  1  -0.004332  0.008572  3.624309  0.005  -0.055564  0.002821  3.882932  0.002  -0.046597  0.002433  3.893301  0.001  0.017105  -0.061636  0.003201  3.876742  0.002
C  C24  1  0.22322071  0.39729663  0.95098681  1  -0.004233  0.008557  3.624192  0.005  -0.055459  0.002821  3.882812  0.002  -0.046495  0.002431  3.893183  0.001  0.017169  -0.061534  0.0032  3.876626  0.002
N  N25  1  0.81299072  0.27634712  0.46920048  1  -0.151394  0.008845  3.352451  0.005  -0.127003  0.0059  3.656659  0.004  -0.148752  0.006536  3.675514  0.005  -0.269682  -0.113145  0.00458  3.644453  0.003
N  N26  1  0.18701125  0.72365649  0.53080283  1  -0.15153  0.008843  3.352616  0.005  -0.127087  0.005901  3.656753  0.004  -0.148837  0.006533  3.675612  0.005  -0.269698  -0.113227  0.004581  3.644545  0.003
N  N27  1  0.83742806  0.11016816  0.38736115  1  -0.146516  0.002842  3.465912  0.003  -0.086281  0.001863  3.702721  0.002  -0.097521  0.001472  3.721109  0.001  -0.278131  -0.079162  0.002108  3.690994  0.002
N  N28  1  0.16257515  0.88983531  0.61263643  1  -0.146308  0.002849  3.465729  0.003  -0.085986  0.00186  3.702542  0.002  -0.097232  0.001472  3.720945  0.001  -0.27807  -0.07887  0.002108  3.690808  0.002
N  N29  1  0.84051941  0.52086484  0.29029955  1  -0.137732  0.00796  3.342785  0.003  -0.118217  0.005876  3.655691  0.004  -0.138897  0.00637  3.672567  0.005  -0.262816  -0.105577  0.004717  3.645171  0.003
N  N30  1  0.15948408  0.47913890  0.70970647  1  -0.13778  0.007962  3.342689  0.003  -0.118297  0.005877  3.655625  0.004  -0.138979  0.006369  3.672499  0.005  -0.262842  -0.105637  0.004717  3.64508  0.003
N  N31  1  0.91671332  0.60266147  0.18891895  1  -0.149677  0.003517  3.494705  0.003  -0.090546  0.002222  3.736597  0.002  -0.100338  0.00159  3.755606  0.001  -0.283869  -0.084531  0.002743  3.724656  0.002
N  N32  1  0.08328547  0.39734066  0.81108342  1  -0.149651  0.003519  3.494673  0.003  -0.090538  0.002221  3.736576  0.002  -0.100326  0.00159  3.755582  0.001  -0.283885  -0.084527  0.002743  3.724628  0.002
Cl  Cl33  1  0.18789747  0.29926505  0.32043699  1  -0.614492  -0.040872  0.823351  -0.066  -0.599011  -0.034144  1.050023  -0.05  -0.622131  -0.025151  1.030688  -0.038  -0.329486  -0.578152  -0.043858  1.062052  -0.062
Cl  Cl34  1  0.81210258  0.70073018  0.67956172  1  -0.614505  -0.040875  0.823365  -0.066  -0.598984  -0.034146  1.050049  -0.05  -0.622104  -0.025153  1.030712  -0.038  -0.32948  -0.578128  -0.043861  1.062078  -0.062
