# generated using pymatgen
data_CsH3C4S(NO)2
_symmetry_space_group_name_H-M   'P 1'
_cell_length_a   7.13535806
_cell_length_b   7.13534674
_cell_length_c   7.84043251
_cell_angle_alpha   95.19265029
_cell_angle_beta   95.19681840
_cell_angle_gamma   111.89810479
_symmetry_Int_Tables_number   1
_chemical_formula_structural   CsH3C4S(NO)2
_chemical_formula_sum   'Cs2 H6 C8 S2 N4 O4'
_cell_volume   365.50612898
_cell_formula_units_Z   2
loop_
 _symmetry_equiv_pos_site_id
 _symmetry_equiv_pos_as_xyz
  1  'x, y, z'
loop_
 _atom_site_type_symbol
 _atom_site_label
 _atom_site_symmetry_multiplicity
 _atom_site_fract_x
 _atom_site_fract_y
 _atom_site_fract_z
 _atom_site_occupancy
 _atom_site_pbe_bader_spin_density
 _atom_site_pbe_cm5_charge
 _atom_site_pbe_ddec_charge
 _atom_site_pbe_ddec_spin_density
 _atom_site_pbe_ddec_sum_bond_order
 _atom_site_pbe_magmom
Cs  Cs0  1  0.75334586  0.24664286  0.50000246  1  0  0.724892  0.792911  0  0.913961  0
Cs  Cs1  1  0.24663753  0.75335189  0.50000338  1  0  0.724863  0.792887  0  0.913963  0
H  H2  1  0.55778982  0.90704280  0.09871249  1  0  0.30622  0.295099  0  0.995514  0
H  H3  1  0.09294442  0.44222164  0.90127330  1  0  0.306045  0.295058  0  0.99537  0
H  H4  1  0.44220332  0.09295089  0.90126353  1  0  0.30609  0.295059  0  0.995298  0
H  H5  1  0.90706166  0.55777740  0.09874393  1  0  0.305986  0.295043  0  0.995054  0
H  H6  1  0.83171178  0.83170648  0.65419695  1  0  0.100142  0.142009  0  1.07776  0
H  H7  1  0.16830788  0.16826958  0.34581815  1  0  0.100152  0.142066  0  1.077656  0
C  C8  1  0.73349858  0.73354568  0.12361978  1  0  0.251485  0.441164  0  4.087568  0
C  C9  1  0.26647872  0.26647249  0.87636085  1  0  0.251518  0.441391  0  4.087427  0
C  C10  1  0.68022449  0.88661209  0.86746955  1  0  0.200086  0.543005  0  4.169657  0
C  C11  1  0.11340597  0.31976233  0.13252798  1  0  0.20022  0.543257  0  4.1693  0
C  C12  1  0.31976932  0.11339161  0.13254699  1  0  0.200152  0.543384  0  4.170352  0
C  C13  1  0.88661637  0.68022342  0.86745763  1  0  0.200071  0.543129  0  4.170334  0
C  C14  1  0.80516375  0.80517469  0.78580173  1  0  -0.15543  -0.514667  0  3.972569  0
C  C15  1  0.19484764  0.19480158  0.21420370  1  0  -0.155439  -0.514814  0  3.972687  0
S  S16  1  0.69906546  0.69905649  0.33105814  1  0  -0.270663  -0.576091  0  2.159091  0
S  S17  1  0.30093624  0.30094149  0.66893308  1  0  -0.270679  -0.576077  0  2.159127  0
N  N18  1  0.65076956  0.84599083  0.03665111  1  0  -0.380971  -0.373285  0  3.502189  0
N  N19  1  0.15401773  0.34921018  0.96337972  1  0  -0.380884  -0.373745  0  3.502119  0
N  N20  1  0.34919267  0.15401891  0.96337841  1  0  -0.380878  -0.373677  0  3.502329  0
N  N21  1  0.84597853  0.65082027  0.03659355  1  0  -0.380694  -0.373593  0  3.501971  0
O  O22  1  0.59129601  0.99278290  0.80004412  1  0  -0.450528  -0.607284  0  2.22861  0
O  O23  1  0.00722538  0.40871355  0.19995952  1  0  -0.450529  -0.607348  0  2.228045  0
O  O24  1  0.40872335  0.00722839  0.19996906  1  0  -0.450652  -0.607493  0  2.228342  0
O  O25  1  0.99278989  0.59127219  0.80002800  1  0  -0.450575  -0.607389  0  2.228229  0
