# generated using pymatgen
data_Cu2H4C5SBrN
_symmetry_space_group_name_H-M   'P 1'
_cell_length_a   3.91854917
_cell_length_b   7.87567927
_cell_length_c   11.42823551
_cell_angle_alpha   89.99988081
_cell_angle_beta   95.58348260
_cell_angle_gamma   90.00092528
_symmetry_Int_Tables_number   1
_chemical_formula_structural   Cu2H4C5SBrN
_chemical_formula_sum   'Cu4 H8 C10 S2 Br2 N2'
_cell_volume   351.01613986
_cell_formula_units_Z   2
loop_
 _symmetry_equiv_pos_site_id
 _symmetry_equiv_pos_as_xyz
  1  'x, y, z'
loop_
 _atom_site_type_symbol
 _atom_site_label
 _atom_site_symmetry_multiplicity
 _atom_site_fract_x
 _atom_site_fract_y
 _atom_site_fract_z
 _atom_site_occupancy
 _atom_site_hle17_bader_spin_density
 _atom_site_hle17_ddec_charge
 _atom_site_hle17_ddec_spin_density
 _atom_site_hle17_ddec_sum_bond_order
 _atom_site_hle17_magmom
 _atom_site_hse06_10hf_bader_spin_density
 _atom_site_hse06_10hf_ddec_charge
 _atom_site_hse06_10hf_ddec_spin_density
 _atom_site_hse06_10hf_ddec_sum_bond_order
 _atom_site_hse06_10hf_magmom
 _atom_site_hse06_bader_spin_density
 _atom_site_hse06_ddec_charge
 _atom_site_hse06_ddec_spin_density
 _atom_site_hse06_ddec_sum_bond_order
 _atom_site_hse06_magmom
 _atom_site_pbe_bader_spin_density
 _atom_site_pbe_cm5_charge
 _atom_site_pbe_ddec_charge
 _atom_site_pbe_ddec_spin_density
 _atom_site_pbe_ddec_sum_bond_order
 _atom_site_pbe_magmom
Cu  Cu0  1  0.43306393  0.63140999  0.16703095  1  0  0.366319  0  2.109186  0  0  0.285937  0  2.624385  0  0  0.293279  0  2.565745  0  0  0.308808  0.281296  0  2.665218  0
Cu  Cu1  1  0.43305096  0.36859007  0.66703257  1  0  0.366238  0  2.109139  0  0  0.285828  0  2.624383  0  0  0.293176  0  2.565719  0  0  0.308772  0.281184  0  2.665222  0
Cu  Cu2  1  0.87192017  0.51495558  0.37023799  1  0  0.359893  0  2.077468  0  0  0.279141  0  2.566471  0  0  0.283274  0  2.514934  0  0  0.348369  0.278364  0  2.601008  0
Cu  Cu3  1  0.87192872  0.48504001  0.87024006  1  0  0.360006  0  2.077446  0  0  0.27923  0  2.566412  0  0  0.283338  0  2.514867  0  0  0.348405  0.27845  0  2.600909  0
H  H4  1  0.10266611  0.31864444  0.18310078  1  0  0.062389  0  1.009369  0  0  0.068804  0  1.085446  0  0  0.072637  0  1.080106  0  0  0.086469  0.065621  0  1.089835  0
H  H5  1  0.10269096  0.68136802  0.68310390  1  0  0.062414  0  1.009371  0  0  0.068866  0  1.085431  0  0  0.072697  0  1.080096  0  0  0.086502  0.065693  0  1.089819  0
H  H6  1  0.16425726  0.01822244  0.12683503  1  0  0.108555  0  0.947275  0  0  0.120488  0  1.006852  0  0  0.12356  0  1.006456  0  0  0.101221  0.118121  0  1.007521  0
H  H7  1  0.16425258  0.98179324  0.62683077  1  0  0.108453  0  0.947332  0  0  0.120439  0  1.00685  0  0  0.123512  0  1.006452  0  0  0.101224  0.118074  0  1.007525  0
H  H8  1  0.71829172  0.87811588  0.44468204  1  0  0.11135  0  0.974698  0  0  0.119862  0  1.039751  0  0  0.123387  0  1.039107  0  0  0.091505  0.117311  0  1.040262  0
H  H9  1  0.71824256  0.12187058  0.94467335  1  0  0.111375  0  0.974804  0  0  0.119891  0  1.039845  0  0  0.123413  0  1.039206  0  0  0.091542  0.117349  0  1.04032  0
H  H10  1  0.68264800  0.18840754  0.49029255  1  0  0.060991  0  0.97832  0  0  0.065671  0  1.057657  0  0  0.069842  0  1.052186  0  0  0.094315  0.062147  0  1.06235  0
H  H11  1  0.68264072  0.81157723  0.99028933  1  0  0.061064  0  0.978227  0  0  0.065677  0  1.05765  0  0  0.069847  0  1.052184  0  0  0.094338  0.062155  0  1.062333  0
C  C12  1  0.02132052  0.21812317  0.23952247  1  0  0.128524  0  3.7138  0  0  0.099353  0  3.962124  0  0  0.107233  0  3.97814  0  0  0.027977  0.09402  0  3.95187  0
C  C13  1  0.02130979  0.78187829  0.73952007  1  0  0.128587  0  3.713297  0  0  0.099266  0  3.961644  0  0  0.107124  0  3.97765  0  0  0.027993  0.093932  0  3.951381  0
C  C14  1  0.05483568  0.04975311  0.20814339  1  0  -0.164499  0  3.713553  0  0  -0.176322  0  3.947804  0  0  -0.185874  0  3.971853  0  0  -0.094762  -0.170177  0  3.932048  0
C  C15  1  0.05481469  0.95027284  0.70813960  1  0  -0.164601  0  3.71292  0  0  -0.176402  0  3.947264  0  0  -0.185955  0  3.971319  0  0  -0.094936  -0.170261  0  3.931537  0
C  C16  1  0.94200001  0.92242815  0.28098941  1  0  0.166359  0  3.736073  0  0  0.185248  0  3.975522  0  0  0.191914  0  3.998247  0  0  1.6e-05  0.180379  0  3.960387  0
C  C17  1  0.94195987  0.07757843  0.78098367  1  0  0.166578  0  3.735782  0  0  0.185326  0  3.975426  0  0  0.191983  0  3.998156  0  0  0.000116  0.180456  0  3.960298  0
C  C18  1  0.80830658  0.97266184  0.38512667  1  0  -0.172163  0  3.706069  0  0  -0.184895  0  3.941044  0  0  -0.193976  0  3.964388  0  0  -0.09695  -0.178986  0  3.925696  0
C  C19  1  0.80827267  0.02733444  0.88512292  1  0  -0.172241  0  3.705952  0  0  -0.184914  0  3.940958  0  0  -0.193993  0  3.964309  0  0  -0.096972  -0.178997  0  3.925601  0
C  C20  1  0.78664176  0.14472297  0.41027257  1  0  0.127004  0  3.707343  0  0  0.101612  0  3.952016  0  0  0.108495  0  3.96912  0  0  0.033734  0.097072  0  3.941103  0
C  C21  1  0.78662544  0.85525655  0.91026641  1  0  0.127011  0  3.707225  0  0  0.101572  0  3.9519  0  0  0.10844  0  3.968971  0  0  0.033697  0.097025  0  3.940993  0
S  S22  1  0.95331310  0.70830197  0.23541236  1  0  -0.416181  0  3.337974  0  0  -0.378592  0  3.942767  0  0  -0.377395  0  3.886401  0  0  -0.312605  -0.379687  0  3.982372  0
S  S23  1  0.95328235  0.29170356  0.73541271  1  0  -0.416071  0  3.337947  0  0  -0.37844  0  3.942822  0  0  -0.377233  0  3.886449  0  0  -0.312541  -0.379532  0  3.982405  0
Br  Br24  1  0.43827555  0.42940353  0.01170123  1  0  -0.437861  0  1.633405  0  0  -0.358981  0  2.085919  0  0  -0.376866  0  2.041596  0  0  -0.214696  -0.345618  0  2.116138  0
Br  Br25  1  0.43829173  0.57059447  0.51170076  1  0  -0.437829  0  1.63339  0  0  -0.358921  0  2.085868  0  0  -0.376809  0  2.041547  0  0  -0.214691  -0.345532  0  2.116078  0
N  N26  1  0.88832147  0.26789383  0.33891664  1  0  -0.300723  0  3.385252  0  0  -0.227378  0  3.677089  0  0  -0.239565  0  3.685115  0  0  -0.373418  -0.219939  0  3.671848  0
N  N27  1  0.88831695  0.73209564  0.83891537  1  0  -0.300943  0  3.385299  0  0  -0.227365  0  3.676959  0  0  -0.239485  0  3.684919  0  0  -0.373432  -0.219918  0  3.67169  0
