# generated using pymatgen
data_CuH8C4N2(OF)2
_symmetry_space_group_name_H-M   'P 1'
_cell_length_a   6.66998702
_cell_length_b   8.28628258
_cell_length_c   6.82197846
_cell_angle_alpha   89.99940964
_cell_angle_beta   112.93769112
_cell_angle_gamma   89.99878121
_symmetry_Int_Tables_number   1
_chemical_formula_structural   CuH8C4N2(OF)2
_chemical_formula_sum   'Cu2 H16 C8 N4 O4 F4'
_cell_volume   347.23326835
_cell_formula_units_Z   2
loop_
 _symmetry_equiv_pos_site_id
 _symmetry_equiv_pos_as_xyz
  1  'x, y, z'
loop_
 _atom_site_type_symbol
 _atom_site_label
 _atom_site_symmetry_multiplicity
 _atom_site_fract_x
 _atom_site_fract_y
 _atom_site_fract_z
 _atom_site_occupancy
 _atom_site_pbe_cm5_charge
 _atom_site_pbe_ddec_charge
 _atom_site_pbe_ddec_spin_density
 _atom_site_pbe_ddec_sum_bond_order
 _atom_site_pbe_magmom
Cu  Cu0  1  0.49999653  0.50000075  0.99999671  1  0.729553  0.863811  0.782642  2.17509  0.611
Cu  Cu1  1  0.99999682  0.00000142  0.00000195  1  0.729524  0.863742  -0.782642  2.175188  -0.611
H  H2  1  0.25478705  0.31969135  0.23024609  1  0.122009  0.115456  0.00153  1.034087  0.002
H  H3  1  0.24521534  0.81968537  0.76976775  1  0.121973  0.11541  -0.001531  1.033976  -0.002
H  H4  1  0.74521338  0.68031418  0.76975109  1  0.122025  0.115448  0.001531  1.034008  0.002
H  H5  1  0.75478700  0.18030447  0.23023421  1  0.121985  0.115368  -0.001531  1.034148  -0.002
H  H6  1  0.73613885  0.67254719  0.39494694  1  0.125931  0.114082  0.001651  0.992994  0.002
H  H7  1  0.76386034  0.17255787  0.60503852  1  0.12587  0.114033  -0.001651  0.993173  -0.002
H  H8  1  0.26386031  0.32745351  0.60504706  1  0.125921  0.114102  0.001651  0.993037  0.002
H  H9  1  0.23615376  0.82744525  0.39496661  1  0.125915  0.114093  -0.001651  0.992926  -0.002
H  H10  1  0.10402716  0.41114532  0.89242612  1  0.258075  0.387745  0.000652  0.960527  0.0
H  H11  1  0.39596567  0.91114214  0.10757465  1  0.258155  0.387858  -0.000652  0.960389  0.0
H  H12  1  0.89596878  0.58885538  0.10757107  1  0.258079  0.387744  0.000652  0.960526  0.0
H  H13  1  0.60402895  0.08885615  0.89243049  1  0.258153  0.387841  -0.000652  0.960405  0.0
H  H14  1  0.12494168  0.60173698  0.93784541  1  0.252967  0.381966  0.000338  0.975702  0.0
H  H15  1  0.37504863  0.10172895  0.06215871  1  0.252968  0.38191  -0.000338  0.975776  0.0
H  H16  1  0.87505362  0.39826372  0.06215019  1  0.252976  0.381976  0.000338  0.975698  0.0
H  H17  1  0.62495198  0.89826934  0.93784643  1  0.252948  0.381874  -0.000338  0.975827  0.0
C  C18  1  0.36589610  0.39918744  0.35154794  1  0.062444  0.058025  0.003971  3.852726  0.004
C  C19  1  0.13410856  0.89918217  0.64845148  1  0.062479  0.058176  -0.003973  3.852922  -0.004
C  C20  1  0.63411207  0.60080964  0.64844605  1  0.062433  0.05809  0.003971  3.853006  0.004
C  C21  1  0.86589025  0.10081612  0.35152660  1  0.06258  0.058443  -0.003969  3.852427  -0.004
C  C22  1  0.63165285  0.59554324  0.44352712  1  0.066048  0.074979  0.003232  3.854117  0.003
C  C23  1  0.86834941  0.09554704  0.55650136  1  0.066199  0.075  -0.003231  3.853883  -0.003
C  C24  1  0.36835007  0.40445626  0.55648758  1  0.066084  0.074965  0.00323  3.853954  0.003
C  C25  1  0.13165364  0.90444522  0.44353243  1  0.06609  0.074979  -0.003234  3.853771  -0.003
N  N26  1  0.49763211  0.49513702  0.29620037  1  -0.32053  -0.179234  0.052778  3.568636  0.069
N  N27  1  0.00237411  0.99513288  0.70379543  1  -0.320619  -0.179383  -0.052782  3.569164  -0.069
N  N28  1  0.50237519  0.50486489  0.70379521  1  -0.320594  -0.179354  0.052782  3.568903  0.069
N  N29  1  0.99761779  0.00487023  0.29619539  1  -0.320667  -0.17953  -0.052784  3.568897  -0.069
O  O30  1  0.17591517  0.51204066  0.86461850  1  -0.595183  -0.790327  0.062624  2.195559  0.085
O  O31  1  0.32408066  0.01202758  0.13538114  1  -0.595237  -0.790353  -0.062619  2.195599  -0.085
O  O32  1  0.82407864  0.48796125  0.13537709  1  -0.595183  -0.790353  0.062629  2.195571  0.085
O  O33  1  0.67591546  0.98797312  0.86462400  1  -0.595228  -0.790302  -0.062624  2.195612  -0.085
F  F34  1  0.47272752  0.21716631  0.95578960  1  -0.33654  -0.594589  -0.003683  0.954526  -0.005
F  F35  1  0.02726658  0.71716792  0.04421049  1  -0.336536  -0.594559  0.003683  0.954551  0.005
F  F36  1  0.52727568  0.78283077  0.04421076  1  -0.336543  -0.594574  -0.003683  0.954546  -0.005
F  F37  1  0.97273236  0.28283640  0.95578670  1  -0.336525  -0.594559  0.003683  0.954593  0.005
