# generated using pymatgen
data_ZnH6(CN2)4
_symmetry_space_group_name_H-M   'P 1'
_cell_length_a   9.33288442
_cell_length_b   9.53509742
_cell_length_c   9.53513203
_cell_angle_alpha   92.98075033
_cell_angle_beta   114.14675239
_cell_angle_gamma   114.14655044
_symmetry_Int_Tables_number   1
_chemical_formula_structural   ZnH6(CN2)4
_chemical_formula_sum   'Zn2 H12 C8 N16'
_cell_volume   681.58223075
_cell_formula_units_Z   2
loop_
 _symmetry_equiv_pos_site_id
 _symmetry_equiv_pos_as_xyz
  1  'x, y, z'
loop_
 _atom_site_type_symbol
 _atom_site_label
 _atom_site_symmetry_multiplicity
 _atom_site_fract_x
 _atom_site_fract_y
 _atom_site_fract_z
 _atom_site_occupancy
 _atom_site_hle17_bader_spin_density
 _atom_site_hle17_ddec_charge
 _atom_site_hle17_ddec_spin_density
 _atom_site_hle17_ddec_sum_bond_order
 _atom_site_hle17_magmom
 _atom_site_hse06_10hf_bader_spin_density
 _atom_site_hse06_10hf_ddec_charge
 _atom_site_hse06_10hf_ddec_spin_density
 _atom_site_hse06_10hf_ddec_sum_bond_order
 _atom_site_hse06_10hf_magmom
 _atom_site_hse06_bader_spin_density
 _atom_site_hse06_ddec_charge
 _atom_site_hse06_ddec_spin_density
 _atom_site_hse06_ddec_sum_bond_order
 _atom_site_hse06_magmom
 _atom_site_pbe_bader_spin_density
 _atom_site_pbe_cm5_charge
 _atom_site_pbe_ddec_charge
 _atom_site_pbe_ddec_spin_density
 _atom_site_pbe_ddec_sum_bond_order
 _atom_site_pbe_magmom
Zn  Zn0  1  0.60326058  0.42814500  0.14005920  1  0  0.890464  0  1.981808  0  0  0.680864  0  2.461302  0  0  0.719889  0  2.418098  0  0  0.761103  0.654  0  2.491061  0
Zn  Zn1  1  0.10326066  0.14005956  0.42814414  1  0  0.890476  0  1.981761  0  0  0.68086  0  2.461255  0  0  0.719897  0  2.418056  0  0  0.76111  0.654011  0  2.491019  0
H  H2  1  0.88903259  0.95646820  0.08851094  1  0  0.134804  0  0.976604  0  0  0.145363  0  1.049928  0  0  0.148389  0  1.04781  0  0  0.097798  0.143152  0  1.051478  0
H  H3  1  0.38903310  0.08851116  0.95646811  1  0  0.134815  0  0.976612  0  0  0.145378  0  1.049934  0  0  0.148404  0  1.047816  0  0  0.097794  0.143166  0  1.051484  0
H  H4  1  0.66455095  0.80386855  0.01444422  1  0  0.145647  0  0.922644  0  0  0.163324  0  0.98093  0  0  0.165405  0  0.979814  0  0  0.107651  0.16184  0  0.981741  0
H  H5  1  0.16454672  0.01444269  0.80386544  1  0  0.145662  0  0.922595  0  0  0.163366  0  0.980859  0  0  0.165447  0  0.979744  0  0  0.107683  0.161882  0  0.98167  0
H  H6  1  0.82189909  0.75587672  0.99955866  1  0  0.137872  0  0.919498  0  0  0.158804  0  0.973165  0  0  0.160426  0  0.972821  0  0  0.1052  0.157654  0  0.973414  0
H  H7  1  0.32189849  0.99955938  0.75587617  1  0  0.137885  0  0.919496  0  0  0.158823  0  0.973163  0  0  0.160445  0  0.97282  0  0  0.10521  0.157674  0  0.973412  0
H  H8  1  0.68570562  0.41212370  0.48046967  1  0  0.13347  0  0.962249  0  0  0.146026  0  1.033126  0  0  0.148587  0  1.031423  0  0  0.099777  0.144158  0  1.034371  0
H  H9  1  0.18570534  0.48046972  0.41212523  1  0  0.133502  0  0.962231  0  0  0.146071  0  1.033098  0  0  0.148631  0  1.031395  0  0  0.099791  0.144203  0  1.034344  0
H  H10  1  0.56297152  0.23429915  0.52218369  1  0  0.136858  0  0.913847  0  0  0.159281  0  0.964652  0  0  0.160837  0  0.964551  0  0  0.106303  0.158161  0  0.964755  0
H  H11  1  0.06296592  0.52218116  0.23429966  1  0  0.13689  0  0.913839  0  0  0.159319  0  0.964644  0  0  0.160872  0  0.964546  0  0  0.106322  0.158205  0  0.964739  0
H  H12  1  0.56379974  0.41502800  0.58165896  1  0  0.138386  0  0.943862  0  0  0.155932  0  1.003867  0  0  0.157329  0  1.004027  0  0  0.103022  0.154925  0  1.003775  0
H  H13  1  0.06380021  0.58166056  0.41502965  1  0  0.138379  0  0.94378  0  0  0.155925  0  1.003797  0  0  0.157321  0  1.003957  0  0  0.103011  0.154917  0  1.003707  0
C  C14  1  0.84943262  0.79674160  0.23382701  1  0  0.420403  0  3.723368  0  0  0.399651  0  3.985301  0  0  0.414305  0  4.001596  0  0  0.236588  0.389877  0  3.974081  0
C  C15  1  0.34943401  0.23382686  0.79673998  1  0  0.420462  0  3.723218  0  0  0.399683  0  3.985198  0  0  0.414369  0  4.001447  0  0  0.236606  0.38991  0  3.973978  0
C  C16  1  0.40438709  0.30134187  0.33328465  1  0  0.415754  0  3.723193  0  0  0.393725  0  3.987531  0  0  0.407991  0  4.003975  0  0  0.232991  0.384255  0  3.976161  0
C  C17  1  0.90438545  0.33328513  0.30134518  1  0  0.415798  0  3.72326  0  0  0.393792  0  3.987578  0  0  0.408058  0  4.00402  0  0  0.23299  0.384321  0  3.976209  0
C  C18  1  0.80484195  0.83111065  0.07597499  1  0  -0.398447  0  3.705791  0  0  -0.476471  0  3.942268  0  0  -0.480432  0  3.947606  0  0  -0.231136  -0.473507  0  3.938466  0
C  C19  1  0.30484101  0.07597301  0.83111085  1  0  -0.398492  0  3.705735  0  0  -0.476549  0  3.942235  0  0  -0.48052  0  3.947563  0  0  -0.231175  -0.473586  0  3.938433  0
C  C20  1  0.56346041  0.34267495  0.48799865  1  0  -0.390863  0  3.69764  0  0  -0.467368  0  3.931957  0  0  -0.47105  0  3.937992  0  0  -0.229632  -0.464616  0  3.927688  0
C  C21  1  0.06345911  0.48799553  0.34267750  1  0  -0.390956  0  3.697635  0  0  -0.467502  0  3.932012  0  0  -0.471181  0  3.938047  0  0  -0.229667  -0.464758  0  3.92774  0
N  N22  1  0.97065088  0.90371408  0.37571868  1  0  -0.360922  0  3.220557  0  0  -0.286932  0  3.528787  0  0  -0.306159  0  3.537857  0  0  -0.25277  -0.274089  0  3.522579  0
N  N23  1  0.47065112  0.37571888  0.90371355  1  0  -0.36094  0  3.220524  0  0  -0.286937  0  3.528764  0  0  -0.306169  0  3.537818  0  0  -0.252766  -0.274089  0  3.522549  0
N  N24  1  0.77565007  0.65470560  0.26184278  1  0  -0.364633  0  3.200827  0  0  -0.288661  0  3.504125  0  0  -0.308404  0  3.514133  0  0  -0.253729  -0.275459  0  3.497296  0
N  N25  1  0.27565072  0.26184377  0.65470401  1  0  -0.364728  0  3.200831  0  0  -0.288756  0  3.504167  0  0  -0.308511  0  3.514166  0  0  -0.253777  -0.275562  0  3.497352  0
N  N26  1  0.13111423  0.21011488  0.14595109  1  0  -0.079087  0  2.979284  0  0  -0.073996  0  3.273424  0  0  -0.073155  0  3.28448  0  0  -0.095884  -0.074393  0  3.265955  0
N  N27  1  0.63111373  0.14595145  0.21011427  1  0  -0.079095  0  2.979268  0  0  -0.074007  0  3.273418  0  0  -0.073164  0  3.284471  0  0  -0.095886  -0.074403  0  3.265947  0
N  N28  1  0.40684057  0.33871503  0.20013792  1  0  -0.359916  0  3.205621  0  0  -0.285603  0  3.507803  0  0  -0.305198  0  3.519238  0  0  -0.250541  -0.27246  0  3.499898  0
N  N29  1  0.90684108  0.20013806  0.33871805  1  0  -0.359941  0  3.205495  0  0  -0.285613  0  3.507651  0  0  -0.30521  0  3.519086  0  0  -0.250553  -0.272473  0  3.499751  0
N  N30  1  0.23480356  0.28006195  0.08552269  1  0  -0.073161  0  2.950099  0  0  -0.076656  0  3.242502  0  0  -0.074554  0  3.253389  0  0  -0.100365  -0.077882  0  3.235143  0
N  N31  1  0.73480275  0.08552135  0.28006197  1  0  -0.073113  0  2.949931  0  0  -0.076609  0  3.242329  0  0  -0.074507  0  3.253217  0  0  -0.100327  -0.077835  0  3.234972  0
N  N32  1  0.96871471  0.82577327  0.49092176  1  0  -0.069169  0  2.963954  0  0  -0.068357  0  3.258118  0  0  -0.066681  0  3.268026  0  0  -0.088576  -0.069321  0  3.251489  0
N  N33  1  0.46871509  0.49092267  0.82577324  1  0  -0.069202  0  2.963996  0  0  -0.068395  0  3.25816  0  0  -0.066721  0  3.26807  0  0  -0.088584  -0.069359  0  3.251529  0
N  N34  1  0.23328240  0.22119815  0.30133965  1  0  -0.376626  0  3.205222  0  0  -0.300647  0  3.504357  0  0  -0.320667  0  3.516175  0  0  -0.255007  -0.287243  0  3.496284  0
N  N35  1  0.73328276  0.30134056  0.22120191  1  0  -0.376643  0  3.205296  0  0  -0.30068  0  3.504445  0  0  -0.320696  0  3.516256  0  0  -0.25501  -0.287271  0  3.496365  0
N  N36  1  0.85262565  0.67699973  0.42310678  1  0  -0.080844  0  2.97713  0  0  -0.078275  0  3.274255  0  0  -0.076863  0  3.284351  0  0  -0.092799  -0.079054  0  3.26748  0
N  N37  1  0.35262725  0.42310690  0.67699881  1  0  -0.080748  0  2.977172  0  0  -0.078172  0  3.274294  0  0  -0.07676  0  3.284396  0  0  -0.092765  -0.078951  0  3.26752  0
