# generated using pymatgen
data_CuH6C4(NF2)2
_symmetry_space_group_name_H-M   'P 1'
_cell_length_a   6.70048747
_cell_length_b   7.01941536
_cell_length_c   8.02496855
_cell_angle_alpha   91.39003417
_cell_angle_beta   89.99346573
_cell_angle_gamma   118.52137677
_symmetry_Int_Tables_number   1
_chemical_formula_structural   CuH6C4(NF2)2
_chemical_formula_sum   'Cu2 H12 C8 N4 F8'
_cell_volume   331.50976432
_cell_formula_units_Z   2
loop_
 _symmetry_equiv_pos_site_id
 _symmetry_equiv_pos_as_xyz
  1  'x, y, z'
loop_
 _atom_site_type_symbol
 _atom_site_label
 _atom_site_symmetry_multiplicity
 _atom_site_fract_x
 _atom_site_fract_y
 _atom_site_fract_z
 _atom_site_occupancy
 _atom_site_pbe_cm5_charge
 _atom_site_pbe_ddec_charge
 _atom_site_pbe_ddec_spin_density
 _atom_site_pbe_ddec_sum_bond_order
 _atom_site_pbe_magmom
Cu  Cu0  1  0.49999883  0.99999945  0.49999688  1  0.738118  0.883391  0.782953  2.175147  0.625
Cu  Cu1  1  0.50000535  0.00000285  0.00000495  1  0.743063  0.882087  -0.774834  2.177532  -0.615
H  H2  1  0.33844473  0.67647583  0.75285284  1  0.181695  0.407341  -0.000291  0.949376  0.0
H  H3  1  0.66156201  0.32353742  0.24715124  1  0.18172  0.40739  -0.000292  0.949346  0.0
H  H4  1  0.64729952  0.66869382  0.43977887  1  0.124961  0.116004  0.001789  1.010546  0.003
H  H5  1  0.35163994  0.32622833  0.93908228  1  0.127645  0.117691  -0.001856  0.999152  -0.003
H  H6  1  0.02460955  0.67334100  0.06094589  1  0.127432  0.117925  -0.001854  0.999181  -0.003
H  H7  1  0.97927386  0.33167509  0.56004547  1  0.124957  0.115872  0.001782  1.010477  0.003
H  H8  1  0.35269669  0.33130136  0.56021131  1  0.12496  0.115998  0.001793  1.010122  0.003
H  H9  1  0.64838838  0.67378330  0.06092178  1  0.127677  0.117787  -0.001855  0.999261  -0.003
H  H10  1  0.97540503  0.32666108  0.93906804  1  0.127489  0.118004  -0.001851  0.999418  -0.003
H  H11  1  0.02073196  0.66828262  0.43993432  1  0.124772  0.115594  0.001791  1.010104  0.003
H  H12  1  0.31395458  0.63012474  0.26298221  1  0.182054  0.411971  0.000349  0.938831  0.0
H  H13  1  0.68603105  0.36992090  0.73701973  1  0.182122  0.412057  0.000348  0.938696  0.0
C  C14  1  0.80451301  0.81685879  0.46582457  1  0.065682  0.073308  0.003934  3.864209  0.004
C  C15  1  0.19424936  0.18069373  0.96522738  1  0.068691  0.077922  -0.004117  3.856203  -0.005
C  C16  1  0.01317840  0.81907318  0.03476198  1  0.068353  0.077381  -0.004131  3.856029  -0.005
C  C17  1  0.98802373  0.18341625  0.53396136  1  0.065237  0.073453  0.00395  3.862398  0.004
C  C18  1  0.19546634  0.18308775  0.53416631  1  0.065739  0.073323  0.003933  3.864056  0.004
C  C19  1  0.80575925  0.81929044  0.03478261  1  0.068748  0.077939  -0.004118  3.856315  -0.005
C  C20  1  0.98683561  0.18095460  0.96523852  1  0.068262  0.077275  -0.00413  3.855708  -0.005
C  C21  1  0.01199502  0.81663894  0.46602948  1  0.065553  0.073654  0.00395  3.863195  0.004
N  N22  1  0.79450742  0.00019590  0.49982801  1  -0.33249  -0.190562  0.050631  3.606084  0.066
N  N23  1  0.20533287  0.99983979  0.00004210  1  -0.330223  -0.191008  -0.051346  3.598911  -0.067
N  N24  1  0.20546709  0.99977977  0.50015946  1  -0.332718  -0.190646  0.050592  3.607567  0.066
N  N25  1  0.79467248  0.00015577  0.99997051  1  -0.330237  -0.191107  -0.051363  3.598357  -0.067
F  F26  1  0.32752386  0.65411913  0.62345108  1  -0.281818  -0.508633  -0.000384  1.07627  0.0
F  F27  1  0.65084434  0.30216529  0.08688149  1  -0.304955  -0.514474  -0.05331  1.088298  -0.078
F  F28  1  0.34916203  0.69783827  0.91312498  1  -0.304966  -0.514503  -0.053313  1.088296  -0.078
F  F29  1  0.67246453  0.34588428  0.37654667  1  -0.281843  -0.508696  -0.000385  1.076321  0.0
F  F30  1  0.42874584  0.85764713  0.27529104  1  -0.328367  -0.580264  0.049616  1.14335  0.072
F  F31  1  0.57124837  0.14235302  0.72470542  1  -0.328464  -0.580409  0.049628  1.143082  0.072
F  F32  1  0.23213961  0.46835885  0.25381587  1  -0.299434  -0.486552  0.001197  0.955265  0.002
F  F33  1  0.76782538  0.53163658  0.74618927  1  -0.299414  -0.486513  0.001196  0.955406  0.002
