# generated using pymatgen
data_CsH4C6S2NO4
_symmetry_space_group_name_H-M   'P 1'
_cell_length_a   5.86556627
_cell_length_b   8.31244219
_cell_length_c   11.01829714
_cell_angle_alpha   89.99876183
_cell_angle_beta   105.38669820
_cell_angle_gamma   90.00127342
_symmetry_Int_Tables_number   1
_chemical_formula_structural   CsH4C6S2NO4
_chemical_formula_sum   'Cs2 H8 C12 S4 N2 O8'
_cell_volume   517.96550224
_cell_formula_units_Z   2
loop_
 _symmetry_equiv_pos_site_id
 _symmetry_equiv_pos_as_xyz
  1  'x, y, z'
loop_
 _atom_site_type_symbol
 _atom_site_label
 _atom_site_symmetry_multiplicity
 _atom_site_fract_x
 _atom_site_fract_y
 _atom_site_fract_z
 _atom_site_occupancy
 _atom_site_hle17_bader_spin_density
 _atom_site_hle17_ddec_charge
 _atom_site_hle17_ddec_spin_density
 _atom_site_hle17_ddec_sum_bond_order
 _atom_site_hle17_magmom
 _atom_site_hse06_10hf_bader_spin_density
 _atom_site_hse06_10hf_ddec_charge
 _atom_site_hse06_10hf_ddec_spin_density
 _atom_site_hse06_10hf_ddec_sum_bond_order
 _atom_site_hse06_10hf_magmom
 _atom_site_hse06_bader_spin_density
 _atom_site_hse06_ddec_charge
 _atom_site_hse06_ddec_spin_density
 _atom_site_hse06_ddec_sum_bond_order
 _atom_site_hse06_magmom
 _atom_site_pbe_bader_spin_density
 _atom_site_pbe_cm5_charge
 _atom_site_pbe_ddec_charge
 _atom_site_pbe_ddec_spin_density
 _atom_site_pbe_ddec_sum_bond_order
 _atom_site_pbe_magmom
Cs  Cs0  1  0.98847841  0.25000337  0.97704556  1  0  0.974583  0  0.608851  0  0  0.921452  0  0.859395  0  0  0.934723  0  0.835948  0  0  0.969153  0.911782  0  0.875987  0
Cs  Cs1  1  0.01152078  0.75000197  0.02295419  1  0  0.974606  0  0.608833  0  0  0.921464  0  0.859402  0  0  0.934757  0  0.835909  0  0  0.969153  0.911789  0  0.875993  0
H  H2  1  0.73014933  0.55145928  0.46006659  1  0  0.106299  0  0.931046  0  0  0.119618  0  0.984279  0  0  0.12236  0  0.983812  0  0  0.112211  0.11762  0  0.984732  0
H  H3  1  0.26984678  0.05147262  0.53993502  1  0  0.106324  0  0.931008  0  0  0.119628  0  0.984268  0  0  0.122369  0  0.983799  0  0  0.112208  0.117629  0  0.984724  0
H  H4  1  0.73016834  0.94853032  0.46006426  1  0  0.106238  0  0.931067  0  0  0.119557  0  0.984317  0  0  0.122297  0  0.983851  0  0  0.112179  0.117557  0  0.984774  0
H  H5  1  0.26984102  0.44854245  0.53993462  1  0  0.106255  0  0.931113  0  0  0.119583  0  0.984345  0  0  0.122324  0  0.983878  0  0  0.112196  0.117586  0  0.984799  0
H  H6  1  0.83180556  0.39983386  0.66267180  1  0  0.113253  0  0.957258  0  0  0.12215  0  1.017638  0  0  0.126042  0  1.015223  0  0  0.111266  0.119276  0  1.019507  0
H  H7  1  0.16818314  0.89984033  0.33733039  1  0  0.113347  0  0.957255  0  0  0.122207  0  1.017653  0  0  0.126127  0  1.015207  0  0  0.111279  0.119334  0  1.019523  0
H  H8  1  0.83182313  0.10015418  0.66267218  1  0  0.113258  0  0.957284  0  0  0.122121  0  1.017692  0  0  0.126078  0  1.0152  0  0  0.111243  0.119248  0  1.019558  0
H  H9  1  0.16819186  0.60016065  0.33733042  1  0  0.113238  0  0.95729  0  0  0.122104  0  1.017706  0  0  0.126004  0  1.015284  0  0  0.111243  0.11923  0  1.019576  0
C  C10  1  0.67377086  0.33371577  0.34859119  1  0  -0.122326  0  3.764892  0  0  -0.102295  0  4.00268  0  0  -0.107156  0  4.025061  0  0  -0.012426  -0.09924  0  3.98794  0
C  C11  1  0.32622860  0.83372532  0.65141178  1  0  -0.122221  0  3.764979  0  0  -0.102262  0  4.002824  0  0  -0.107132  0  4.025222  0  0  -0.012467  -0.099207  0  3.988079  0
C  C12  1  0.67376884  0.16626799  0.34858136  1  0  -0.122171  0  3.764725  0  0  -0.102207  0  4.002582  0  0  -0.107076  0  4.024966  0  0  -0.012443  -0.099155  0  3.987847  0
C  C13  1  0.32622480  0.66628115  0.65140715  1  0  -0.122197  0  3.764852  0  0  -0.102144  0  4.002602  0  0  -0.10702  0  4.025011  0  0  -0.012377  -0.09909  0  3.987859  0
C  C14  1  0.73025941  0.42041596  0.46068227  1  0  -0.052896  0  3.737289  0  0  -0.077356  0  3.991077  0  0  -0.078219  0  4.011502  0  0  -0.076644  -0.076674  0  3.97734  0
C  C15  1  0.26970679  0.92042303  0.53931911  1  0  -0.052933  0  3.737231  0  0  -0.077363  0  3.991021  0  0  -0.07822  0  4.011454  0  0  -0.076634  -0.076681  0  3.977283  0
C  C16  1  0.73029063  0.07957630  0.46068038  1  0  -0.052739  0  3.737063  0  0  -0.077171  0  3.990834  0  0  -0.078035  0  4.011283  0  0  -0.076553  -0.076489  0  3.977097  0
C  C17  1  0.26972564  0.57958216  0.53931456  1  0  -0.05285  0  3.737326  0  0  -0.077319  0  3.991099  0  0  -0.078173  0  4.011526  0  0  -0.07665  -0.076637  0  3.977364  0
C  C18  1  0.78708637  0.33430170  0.57384381  1  0  -0.054021  0  3.699964  0  0  -0.071323  0  3.956635  0  0  -0.071845  0  3.974055  0  0  -0.074474  -0.071002  0  3.94501  0
C  C19  1  0.21293964  0.83430993  0.42615747  1  0  -0.054254  0  3.700078  0  0  -0.071519  0  3.956766  0  0  -0.072062  0  3.974155  0  0  -0.074489  -0.071199  0  3.945145  0
C  C20  1  0.78707901  0.16568338  0.57384322  1  0  -0.054205  0  3.700012  0  0  -0.071488  0  3.956705  0  0  -0.072059  0  3.974077  0  0  -0.074487  -0.071165  0  3.945077  0
C  C21  1  0.21290928  0.66569281  0.42615544  1  0  -0.053986  0  3.700038  0  0  -0.071277  0  3.956729  0  0  -0.071804  0  3.974133  0  0  -0.074454  -0.070956  0  3.945106  0
S  S22  1  0.59585236  0.41368066  0.19302416  1  0  1.260258  0  5.526774  0  0  1.181238  0  6.034601  0  0  1.226331  0  6.015844  0  0  0.536439  1.150198  0  6.046642  0
S  S23  1  0.40414020  0.91368335  0.80698107  1  0  1.260126  0  5.526813  0  0  1.181137  0  6.034648  0  0  1.226237  0  6.015891  0  0  0.536347  1.150097  0  6.046686  0
S  S24  1  0.59585370  0.08631838  0.19301157  1  0  1.26  0  5.527058  0  0  1.180993  0  6.034906  0  0  1.226093  0  6.016147  0  0  0.536218  1.149952  0  6.04695  0
S  S25  1  0.40414681  0.58632348  0.80698284  1  0  1.25996  0  5.527089  0  0  1.180943  0  6.034926  0  0  1.226039  0  6.016179  0  0  0.536251  1.149904  0  6.046964  0
N  N26  1  0.55653188  0.25000877  0.11367673  1  0  -0.828073  0  2.951573  0  0  -0.781313  0  3.265645  0  0  -0.802796  0  3.258006  0  0  -0.545355  -0.766395  0  3.27042  0
N  N27  1  0.44346555  0.75000018  0.88632276  1  0  -0.828032  0  2.951744  0  0  -0.781309  0  3.265868  0  0  -0.802782  0  3.258197  0  0  -0.545332  -0.766393  0  3.27064  0
O  O28  1  0.37608796  0.50428071  0.17306019  1  0  -0.662161  0  1.956033  0  0  -0.621256  0  2.206088  0  0  -0.641991  0  2.193857  0  0  -0.403735  -0.606622  0  2.214037  0
O  O29  1  0.20488576  0.00475484  0.82716093  1  0  -0.661534  0  1.954805  0  0  -0.620716  0  2.204916  0  0  -0.641368  0  2.192571  0  0  -0.404425  -0.606118  0  2.212911  0
O  O30  1  0.79512510  0.50476047  0.17285169  1  0  -0.661615  0  1.954668  0  0  -0.620784  0  2.204783  0  0  -0.641433  0  2.192431  0  0  -0.404469  -0.606184  0  2.212778  0
O  O31  1  0.37607099  0.99571511  0.17305017  1  0  -0.662175  0  1.955911  0  0  -0.621225  0  2.205892  0  0  -0.641962  0  2.19366  0  0  -0.403682  -0.606589  0  2.213841  0
O  O32  1  0.62391299  0.49572342  0.82694435  1  0  -0.6621  0  1.956006  0  0  -0.621182  0  2.206057  0  0  -0.641915  0  2.193825  0  0  -0.403687  -0.606549  0  2.214005  0
O  O33  1  0.79511344  0.99524689  0.17283518  1  0  -0.661524  0  1.95482  0  0  -0.620707  0  2.204945  0  0  -0.641358  0  2.192593  0  0  -0.404436  -0.606107  0  2.212942  0
O  O34  1  0.20488292  0.49524126  0.82715656  1  0  -0.661547  0  1.954735  0  0  -0.620723  0  2.204848  0  0  -0.641374  0  2.192498  0  0  -0.404439  -0.606126  0  2.212845  0
O  O35  1  0.62392467  0.00428542  0.82694726  1  0  -0.662186  0  1.955938  0  0  -0.621255  0  2.205962  0  0  -0.641999  0  2.193738  0  0  -0.40373  -0.606625  0  2.213912  0
