# generated using pymatgen
data_KH7(CO)3
_symmetry_space_group_name_H-M   'P 1'
_cell_length_a   5.23970655
_cell_length_b   5.23970275
_cell_length_c   8.94853231
_cell_angle_alpha   87.32707306
_cell_angle_beta   87.32671776
_cell_angle_gamma   90.12033447
_symmetry_Int_Tables_number   1
_chemical_formula_structural   KH7(CO)3
_chemical_formula_sum   'K2 H14 C6 O6'
_cell_volume   245.14090930
_cell_formula_units_Z   2
loop_
 _symmetry_equiv_pos_site_id
 _symmetry_equiv_pos_as_xyz
  1  'x, y, z'
loop_
 _atom_site_type_symbol
 _atom_site_label
 _atom_site_symmetry_multiplicity
 _atom_site_fract_x
 _atom_site_fract_y
 _atom_site_fract_z
 _atom_site_occupancy
 _atom_site_hle17_bader_spin_density
 _atom_site_hle17_ddec_charge
 _atom_site_hle17_ddec_spin_density
 _atom_site_hle17_ddec_sum_bond_order
 _atom_site_hle17_magmom
 _atom_site_hse06_10hf_bader_spin_density
 _atom_site_hse06_10hf_ddec_charge
 _atom_site_hse06_10hf_ddec_spin_density
 _atom_site_hse06_10hf_ddec_sum_bond_order
 _atom_site_hse06_10hf_magmom
 _atom_site_hse06_bader_spin_density
 _atom_site_hse06_ddec_charge
 _atom_site_hse06_ddec_spin_density
 _atom_site_hse06_ddec_sum_bond_order
 _atom_site_hse06_magmom
 _atom_site_pbe_bader_spin_density
 _atom_site_pbe_cm5_charge
 _atom_site_pbe_ddec_charge
 _atom_site_pbe_ddec_spin_density
 _atom_site_pbe_ddec_sum_bond_order
 _atom_site_pbe_magmom
K  K0  1  0.71023886  0.71024312  0.06044947  1  0  0.917993  0  0.531176  0  0  0.861081  0  0.726382  0  0  0.878771  0  0.702886  0  0  0.837037  0.848127  0  0.742854  0
K  K1  1  0.28975884  0.28975960  0.93955025  1  0  0.917992  0  0.531183  0  0  0.861077  0  0.726389  0  0  0.878769  0  0.702893  0  0  0.837029  0.848126  0  0.742858  0
H  H2  1  0.18722378  0.83949606  0.81204136  1  0  0.349343  0  0.980903  0  0  0.320447  0  1.061109  0  0  0.332178  0  1.045009  0  0  0.271435  0.312242  0  1.069401  0
H  H3  1  0.16050301  0.81277765  0.18795622  1  0  0.349332  0  0.980912  0  0  0.320437  0  1.061116  0  0  0.332168  0  1.045023  0  0  0.271429  0.312233  0  1.069406  0
H  H4  1  0.81277585  0.16050671  0.18795607  1  0  0.349317  0  0.980929  0  0  0.320421  0  1.06114  0  0  0.332152  0  1.045046  0  0  0.271423  0.312216  0  1.069431  0
H  H5  1  0.83949472  0.18722315  0.81204354  1  0  0.349336  0  0.9809  0  0  0.32044  0  1.061108  0  0  0.33217  0  1.045019  0  0  0.271424  0.312234  0  1.069402  0
H  H6  1  0.49027183  0.06389305  0.65528286  1  0  0.021172  0  0.950147  0  0  0.034318  0  1.025344  0  0  0.035049  0  1.023898  0  0  0.088757  0.033881  0  1.026035  0
H  H7  1  0.93610595  0.50973361  0.34471596  1  0  0.021152  0  0.950144  0  0  0.034323  0  1.025335  0  0  0.035049  0  1.023889  0  0  0.08877  0.03389  0  1.026022  0
H  H8  1  0.50973355  0.93610793  0.34471447  1  0  0.021175  0  0.950153  0  0  0.034323  0  1.025348  0  0  0.03505  0  1.023902  0  0  0.088763  0.033886  0  1.026038  0
H  H9  1  0.06389563  0.49026536  0.65528599  1  0  0.021141  0  0.950158  0  0  0.034309  0  1.025347  0  0  0.035036  0  1.023899  0  0  0.088757  0.033873  0  1.026036  0
H  H10  1  0.43020155  0.75426537  0.59345046  1  0  0.019886  0  0.957718  0  0  0.034181  0  1.035179  0  0  0.034494  0  1.033679  0  0  0.086934  0.03372  0  1.036536  0
H  H11  1  0.24573465  0.56980430  0.40654748  1  0  0.019872  0  0.957676  0  0  0.034167  0  1.035158  0  0  0.034475  0  1.033659  0  0  0.086942  0.033709  0  1.036515  0
H  H12  1  0.56980005  0.24573361  0.40654701  1  0  0.019886  0  0.957723  0  0  0.034175  0  1.035191  0  0  0.034484  0  1.033692  0  0  0.086952  0.033714  0  1.036548  0
H  H13  1  0.75426690  0.43019659  0.59345218  1  0  0.019867  0  0.957699  0  0  0.034153  0  1.035182  0  0  0.03446  0  1.033682  0  0  0.086951  0.033693  0  1.036538  0
H  H14  1  0.87351309  0.87350568  0.57223279  1  0  0.003873  0  0.923378  0  0  0.018587  0  0.991768  0  0  0.017904  0  0.991979  0  0  0.088308  0.018871  0  0.991803  0
H  H15  1  0.12649040  0.12649333  0.42776687  1  0  0.003879  0  0.923394  0  0  0.018588  0  0.991789  0  0  0.017905  0  0.991999  0  0  0.088314  0.018876  0  0.991829  0
C  C16  1  0.51270091  0.85771263  0.68526674  1  0  0.091802  0  3.693439  0  0  0.029641  0  3.969626  0  0  0.036374  0  3.976313  0  0  -0.092721  0.025375  0  3.964858  0
C  C17  1  0.14228704  0.48730182  0.31473358  1  0  0.09194  0  3.693334  0  0  0.029725  0  3.96958  0  0  0.036475  0  3.976247  0  0  -0.09271  0.025457  0  3.964833  0
C  C18  1  0.48729874  0.14228822  0.31473298  1  0  0.091895  0  3.693366  0  0  0.029722  0  3.969574  0  0  0.036468  0  3.976247  0  0  -0.092686  0.025463  0  3.964813  0
C  C19  1  0.85771451  0.51269905  0.68526832  1  0  0.091977  0  3.693326  0  0  0.029783  0  3.969552  0  0  0.036537  0  3.976213  0  0  -0.092683  0.025516  0  3.964783  0
C  C20  1  0.79924479  0.79924241  0.68504880  1  0  0.198609  0  3.714841  0  0  0.177847  0  3.963343  0  0  0.182748  0  3.977054  0  0  -0.02585  0.17448  0  3.953732  0
C  C21  1  0.20075676  0.20075847  0.31495198  1  0  0.198571  0  3.714885  0  0  0.177822  0  3.963392  0  0  0.18272  0  3.977098  0  0  -0.025856  0.174427  0  3.953833  0
O  O22  1  0.38119624  0.79310656  0.82478387  1  0  -0.67516  0  2.13165  0  0  -0.617574  0  2.374151  0  0  -0.636293  0  2.361387  0  0  -0.561563  -0.604481  0  2.380739  0
O  O23  1  0.20689012  0.61880480  0.17521557  1  0  -0.675206  0  2.131595  0  0  -0.617603  0  2.374108  0  0  -0.636324  0  2.36134  0  0  -0.561566  -0.604505  0  2.380696  0
O  O24  1  0.61880720  0.20689628  0.17521458  1  0  -0.675169  0  2.131568  0  0  -0.617579  0  2.37407  0  0  -0.636299  0  2.361303  0  0  -0.561588  -0.604487  0  2.380659  0
O  O25  1  0.79310765  0.38119409  0.82478536  1  0  -0.675215  0  2.131589  0  0  -0.617615  0  2.374096  0  0  -0.636337  0  2.361329  0  0  -0.561574  -0.604522  0  2.380686  0
O  O26  1  0.92077712  0.92077564  0.79989131  1  0  -0.734633  0  1.996458  0  0  -0.659603  0  2.215099  0  0  -0.683095  0  2.207704  0  0  -0.485215  -0.643014  0  2.218469  0
O  O27  1  0.07922259  0.07922139  0.20010850  1  0  -0.734628  0  1.996424  0  0  -0.659594  0  2.215065  0  0  -0.683087  0  2.20767  0  0  -0.485216  -0.642999  0  2.218444  0
