# generated using pymatgen
data_BaH8C4O7
_symmetry_space_group_name_H-M   'P 1'
_cell_length_a   6.50449301
_cell_length_b   7.94823092
_cell_length_c   8.94395979
_cell_angle_alpha   104.17223026
_cell_angle_beta   103.78972813
_cell_angle_gamma   108.13840339
_symmetry_Int_Tables_number   1
_chemical_formula_structural   BaH8C4O7
_chemical_formula_sum   'Ba2 H16 C8 O14'
_cell_volume   400.44300711
_cell_formula_units_Z   2
loop_
 _symmetry_equiv_pos_site_id
 _symmetry_equiv_pos_as_xyz
  1  'x, y, z'
loop_
 _atom_site_type_symbol
 _atom_site_label
 _atom_site_symmetry_multiplicity
 _atom_site_fract_x
 _atom_site_fract_y
 _atom_site_fract_z
 _atom_site_occupancy
 _atom_site_hle17_bader_spin_density
 _atom_site_hle17_ddec_charge
 _atom_site_hle17_ddec_spin_density
 _atom_site_hle17_ddec_sum_bond_order
 _atom_site_hle17_magmom
 _atom_site_hse06_10hf_bader_spin_density
 _atom_site_hse06_10hf_ddec_charge
 _atom_site_hse06_10hf_ddec_spin_density
 _atom_site_hse06_10hf_ddec_sum_bond_order
 _atom_site_hse06_10hf_magmom
 _atom_site_hse06_bader_spin_density
 _atom_site_hse06_ddec_charge
 _atom_site_hse06_ddec_spin_density
 _atom_site_hse06_ddec_sum_bond_order
 _atom_site_hse06_magmom
 _atom_site_pbe_bader_spin_density
 _atom_site_pbe_cm5_charge
 _atom_site_pbe_ddec_charge
 _atom_site_pbe_ddec_spin_density
 _atom_site_pbe_ddec_sum_bond_order
 _atom_site_pbe_magmom
Ba  Ba0  1  0.14449836  0.26194269  0.41929264  1  0  1.649303  0  1.101191  0  0  1.503947  0  1.494142  0  0  1.543822  0  1.450212  0  0  0.925712  1.474582  0  1.525317  0
Ba  Ba1  1  0.85550135  0.73805864  0.58070678  1  0  1.64928  0  1.101228  0  0  1.503932  0  1.494166  0  0  1.543808  0  1.450236  0  0  0.9257  1.474568  0  1.525341  0
H  H2  1  0.18806469  0.72714760  0.98063127  1  0  0.098832  0  0.932766  0  0  0.109669  0  0.98908  0  0  0.112905  0  0.987035  0  0  0.116166  0.107289  0  0.990746  0
H  H3  1  0.81193184  0.27285371  0.01936983  1  0  0.098812  0  0.932805  0  0  0.109665  0  0.989098  0  0  0.112902  0  0.987053  0  0  0.116154  0.107283  0  0.990763  0
H  H4  1  0.20928095  0.38025180  0.05597706  1  0  0.095421  0  0.940262  0  0  0.105237  0  0.99938  0  0  0.108093  0  0.997847  0  0  0.11728  0.103177  0  1.000626  0
H  H5  1  0.79071493  0.61974810  0.94402250  1  0  0.09542  0  0.940329  0  0  0.10524  0  0.999436  0  0  0.108097  0  0.997903  0  0  0.117269  0.103181  0  1.000683  0
H  H6  1  0.26620915  0.89783118  0.41836245  1  0  0.411659  0  0.901618  0  0  0.380509  0  0.966824  0  0  0.390719  0  0.95194  0  0  0.303239  0.373301  0  0.977309  0
H  H7  1  0.73379215  0.10217016  0.58163725  1  0  0.411663  0  0.901616  0  0  0.380513  0  0.966823  0  0  0.390724  0  0.951937  0  0  0.303236  0.373305  0  0.977309  0
H  H8  1  0.37035717  0.04194854  0.59869907  1  0  0.412129  0  0.905357  0  0  0.379704  0  0.972093  0  0  0.391106  0  0.955363  0  0  0.299842  0.371646  0  0.983901  0
H  H9  1  0.62964440  0.95804999  0.40130007  1  0  0.412119  0  0.905385  0  0  0.379691  0  0.972123  0  0  0.391093  0  0.955393  0  0  0.29983  0.371633  0  0.983929  0
H  H10  1  0.38138435  0.01878975  0.20705937  1  0  0.427121  0  0.872564  0  0  0.394903  0  0.938533  0  0  0.405636  0  0.922442  0  0  0.305109  0.38727  0  0.949977  0
H  H11  1  0.61861854  0.98121160  0.79294061  1  0  0.427111  0  0.872581  0  0  0.394906  0  0.938523  0  0  0.405641  0  0.922431  0  0  0.305124  0.387276  0  0.949963  0
H  H12  1  0.54762627  0.22854879  0.24199454  1  0  0.427628  0  0.870145  0  0  0.397274  0  0.932881  0  0  0.407598  0  0.917738  0  0  0.306662  0.389982  0  0.943566  0
H  H13  1  0.45237596  0.77145115  0.75800502  1  0  0.427641  0  0.870131  0  0  0.397284  0  0.932872  0  0  0.407609  0  0.917729  0  0  0.30667  0.389992  0  0.943558  0
H  H14  1  0.76575002  0.92504755  0.01903927  1  0  0.420966  0  0.877988  0  0  0.393027  0  0.937489  0  0  0.403255  0  0.922233  0  0  0.289041  0.385735  0  0.948353  0
H  H15  1  0.23425446  0.07495382  0.98096211  1  0  0.42097  0  0.877983  0  0  0.39303  0  0.937487  0  0  0.403259  0  0.92223  0  0  0.289043  0.385739  0  0.948351  0
H  H16  1  0.81541072  0.83870310  0.15901565  1  0  0.423485  0  0.880912  0  0  0.392772  0  0.944949  0  0  0.40394  0  0.928523  0  0  0.292077  0.384855  0  0.956571  0
H  H17  1  0.18459058  0.16129824  0.84098517  1  0  0.423484  0  0.880909  0  0  0.392766  0  0.944954  0  0  0.403935  0  0.928527  0  0  0.292061  0.384849  0  0.956578  0
C  C18  1  0.16900904  0.49422243  0.79048577  1  0  0.681483  0  3.864998  0  0  0.629989  0  4.166915  0  0  0.662545  0  4.160369  0  0  0.217802  0.607861  0  4.170562  0
C  C19  1  0.83098908  0.50577889  0.20951449  1  0  0.681496  0  3.865023  0  0  0.629989  0  4.166957  0  0  0.662546  0  4.160409  0  0  0.217793  0.607861  0  4.170605  0
C  C20  1  0.10996267  0.57284041  0.93945476  1  0  -0.136815  0  3.533055  0  0  -0.148841  0  3.772993  0  0  -0.152921  0  3.782324  0  0  -0.075991  -0.145953  0  3.766544  0
C  C21  1  0.89003254  0.42715808  0.06054550  1  0  -0.136801  0  3.533129  0  0  -0.14883  0  3.773061  0  0  -0.152912  0  3.782392  0  0  -0.075985  -0.145939  0  3.766608  0
C  C22  1  0.31686490  0.64242760  0.24789423  1  0  0.7102  0  3.829875  0  0  0.652511  0  4.13894  0  0  0.686403  0  4.129773  0  0  0.235408  0.629447  0  4.144493  0
C  C23  1  0.68313415  0.35757232  0.75210589  1  0  0.710266  0  3.829842  0  0  0.652627  0  4.138832  0  0  0.68652  0  4.129665  0  0  0.235475  0.629564  0  4.144388  0
C  C24  1  0.15512480  0.49844203  0.08225956  1  0  -0.137592  0  3.532085  0  0  -0.148034  0  3.770765  0  0  -0.152796  0  3.780741  0  0  -0.07255  -0.144809  0  3.763981  0
C  C25  1  0.84487080  0.50156068  0.91774056  1  0  -0.137628  0  3.532048  0  0  -0.148087  0  3.770709  0  0  -0.152852  0  3.780685  0  0  -0.072546  -0.144872  0  3.763938  0
O  O26  1  0.17167041  0.58438397  0.68864641  1  0  -0.761384  0  1.986902  0  0  -0.694447  0  2.228471  0  0  -0.721307  0  2.218459  0  0  -0.379358  -0.675427  0  2.234777  0
O  O27  1  0.82832930  0.41561736  0.31135413  1  0  -0.761381  0  1.986862  0  0  -0.694442  0  2.22844  0  0  -0.721302  0  2.218426  0  0  -0.379349  -0.67542  0  2.234746  0
O  O28  1  0.20649234  0.34476095  0.76629599  1  0  -0.646389  0  1.973152  0  0  -0.580611  0  2.194276  0  0  -0.60696  0  2.186989  0  0  -0.320211  -0.562264  0  2.198842  0
O  O29  1  0.79350830  0.65523898  0.23370329  1  0  -0.646382  0  1.973188  0  0  -0.580608  0  2.19432  0  0  -0.606958  0  2.187035  0  0  -0.320208  -0.562262  0  2.198886  0
O  O30  1  0.38322415  0.58359316  0.36250709  1  0  -0.726608  0  1.967193  0  0  -0.669134  0  2.224566  0  0  -0.695462  0  2.214454  0  0  -0.377838  -0.650625  0  2.231016  0
O  O31  1  0.61677331  0.41640676  0.63749275  1  0  -0.72664  0  1.967126  0  0  -0.669175  0  2.224467  0  0  -0.695504  0  2.214356  0  0  -0.377858  -0.650656  0  2.230893  0
O  O32  1  0.37186476  0.81801451  0.26676460  1  0  -0.675639  0  2.058855  0  0  -0.599733  0  2.274844  0  0  -0.626024  0  2.262363  0  0  -0.298556  -0.581391  0  2.283068  0
O  O33  1  0.62814131  0.18198686  0.73323370  1  0  -0.67566  0  2.058927  0  0  -0.599797  0  2.274918  0  0  -0.626092  0  2.26244  0  0  -0.298608  -0.581457  0  2.283142  0
O  O34  1  0.22044577  0.96073113  0.50743728  1  0  -0.909543  0  1.847094  0  0  -0.847353  0  2.037856  0  0  -0.869708  0  2.008033  0  0  -0.65257  -0.831418  0  2.058658  0
O  O35  1  0.77955553  0.03927021  0.49256242  1  0  -0.909526  0  1.847083  0  0  -0.847348  0  2.037877  0  0  -0.869693  0  2.008031  0  0  -0.652558  -0.831413  0  2.058678  0
O  O36  1  0.38321055  0.14233893  0.20298300  1  0  -0.870432  0  1.813029  0  0  -0.81204  0  1.981898  0  0  -0.832214  0  1.949845  0  0  -0.588712  -0.797695  0  2.004315  0
O  O37  1  0.61679327  0.85766103  0.79701684  1  0  -0.87042  0  1.813022  0  0  -0.812035  0  1.981885  0  0  -0.83221  0  1.94983  0  0  -0.588733  -0.79769  0  2.004302  0
O  O38  1  0.84212252  0.95945473  0.13816676  1  0  -0.89383  0  1.751364  0  0  -0.839341  0  1.917841  0  0  -0.858627  0  1.886523  0  0  -0.642544  -0.825559  0  1.939803  0
O  O39  1  0.15787971  0.04054522  0.86183280  1  0  -0.893817  0  1.751338  0  0  -0.83933  0  1.917821  0  0  -0.858617  0  1.886501  0  0  -0.642519  -0.825547  0  1.939781  0
