# generated using pymatgen
data_HgH3C6S2BrN4
_symmetry_space_group_name_H-M   'P 1'
_cell_length_a   5.93558624
_cell_length_b   7.33604658
_cell_length_c   13.51957865
_cell_angle_alpha   88.79270264
_cell_angle_beta   86.74420609
_cell_angle_gamma   66.22155470
_symmetry_Int_Tables_number   1
_chemical_formula_structural   HgH3C6S2BrN4
_chemical_formula_sum   'Hg2 H6 C12 S4 Br2 N8'
_cell_volume   537.84905724
_cell_formula_units_Z   2
loop_
 _symmetry_equiv_pos_site_id
 _symmetry_equiv_pos_as_xyz
  1  'x, y, z'
loop_
 _atom_site_type_symbol
 _atom_site_label
 _atom_site_symmetry_multiplicity
 _atom_site_fract_x
 _atom_site_fract_y
 _atom_site_fract_z
 _atom_site_occupancy
 _atom_site_hle17_bader_spin_density
 _atom_site_hle17_ddec_charge
 _atom_site_hle17_ddec_spin_density
 _atom_site_hle17_ddec_sum_bond_order
 _atom_site_hle17_magmom
 _atom_site_hse06_10hf_bader_spin_density
 _atom_site_hse06_10hf_ddec_charge
 _atom_site_hse06_10hf_ddec_spin_density
 _atom_site_hse06_10hf_ddec_sum_bond_order
 _atom_site_hse06_10hf_magmom
 _atom_site_hse06_bader_spin_density
 _atom_site_hse06_ddec_charge
 _atom_site_hse06_ddec_spin_density
 _atom_site_hse06_ddec_sum_bond_order
 _atom_site_hse06_magmom
 _atom_site_pbe_bader_spin_density
 _atom_site_pbe_cm5_charge
 _atom_site_pbe_ddec_charge
 _atom_site_pbe_ddec_spin_density
 _atom_site_pbe_ddec_sum_bond_order
 _atom_site_pbe_magmom
Hg  Hg0  1  0.04104701  0.39521744  0.75425724  1  0  0.688891  0  2.065707  0  0  0.54553  0  2.555602  0  0  0.589397  0  2.52587  0  0  0.540195  0.515813  0  2.57537  0
Hg  Hg1  1  0.43445037  0.60236182  0.25274954  1  0  0.688705  0  2.068368  0  0  0.545062  0  2.558491  0  0  0.589015  0  2.528784  0  0  0.540191  0.515259  0  2.578289  0
H  H2  1  0.36334968  0.44986658  0.93862458  1  0  0.07135  0  0.942772  0  0  0.076921  0  1.011618  0  0  0.078624  0  1.009151  0  0  0.118442  0.07564  0  1.013468  0
H  H3  1  0.82061022  0.54586707  0.43364791  1  0  0.071694  0  0.940845  0  0  0.077845  0  1.008567  0  0  0.079601  0  1.006061  0  0  0.118908  0.076477  0  1.010641  0
H  H4  1  0.97150750  0.92463519  0.12863651  1  0  0.072846  0  0.98517  0  0  0.073942  0  1.064685  0  0  0.076916  0  1.061751  0  0  0.097685  0.071792  0  1.066778  0
H  H5  1  0.89279310  0.08195137  0.62910157  1  0  0.071828  0  0.986469  0  0  0.073148  0  1.06591  0  0  0.076098  0  1.063  0  0  0.097174  0.071012  0  1.06798  0
H  H6  1  0.61514596  0.75331171  0.89857973  1  0  0.110388  0  0.931952  0  0  0.11661  0  0.997572  0  0  0.119634  0  0.994171  0  0  0.118325  0.114438  0  0.99996  0
H  H7  1  0.36657077  0.24721813  0.39898020  1  0  0.109558  0  0.930019  0  0  0.116086  0  0.995427  0  0  0.119112  0  0.992022  0  0  0.118417  0.113919  0  0.997815  0
C  C8  1  0.18977230  0.57065217  0.96256446  1  0  0.282102  0  3.702332  0  0  0.229469  0  3.981578  0  0  0.245045  0  3.993728  0  0  0.167096  0.219214  0  3.973033  0
C  C9  1  0.76503203  0.42727052  0.45920617  1  0  0.281764  0  3.701659  0  0  0.229177  0  3.980802  0  0  0.244641  0  3.993025  0  0  0.167227  0.218811  0  3.972669  0
C  C10  1  0.97266811  0.82890670  0.06771344  1  0  0.115113  0  3.721816  0  0  0.079101  0  3.977296  0  0  0.087605  0  3.994026  0  0  0.049583  0.073785  0  3.965896  0
C  C11  1  0.80102602  0.17440119  0.56695224  1  0  0.113802  0  3.721074  0  0  0.077674  0  3.977224  0  0  0.086149  0  3.993899  0  0  0.048475  0.072367  0  3.965852  0
C  C12  1  0.75656618  0.85709461  0.02174210  1  0  -0.011379  0  3.714519  0  0  0.011877  0  3.981178  0  0  0.006912  0  4.003181  0  0  -0.013753  0.014465  0  3.966626  0
C  C13  1  0.61278109  0.14522760  0.52158469  1  0  -0.010497  0  3.712749  0  0  0.012655  0  3.979444  0  0  0.007723  0  4.001424  0  0  -0.013438  0.015215  0  3.964895  0
C  C14  1  0.77348897  0.73675569  0.94077022  1  0  0.126556  0  3.66547  0  0  0.083331  0  3.91954  0  0  0.093612  0  3.934718  0  0  0.057165  0.076835  0  3.909094  0
C  C15  1  0.51049714  0.26325453  0.44007274  1  0  0.127799  0  3.664287  0  0  0.084453  0  3.918335  0  0  0.094687  0  3.93359  0  0  0.057448  0.07803  0  3.907769  0
C  C16  1  0.40466535  0.60093243  0.70792640  1  0  0.26237  0  3.934237  0  0  0.246013  0  4.235732  0  0  0.265077  0  4.252951  0  0  0.138223  0.233082  0  4.224162  0
C  C17  1  0.00397075  0.39811610  0.20647650  1  0  0.26248  0  3.932918  0  0  0.245838  0  4.234828  0  0  0.26495  0  4.252033  0  0  0.137811  0.232893  0  4.223253  0
C  C18  1  0.73067992  0.13957344  0.81776639  1  0  0.241455  0  3.947282  0  0  0.229203  0  4.248542  0  0  0.246493  0  4.265848  0  0  0.134113  0.217536  0  4.236784  0
C  C19  1  0.86907200  0.85911652  0.31711085  1  0  0.239965  0  3.949856  0  0  0.227869  0  4.251192  0  0  0.245124  0  4.268579  0  0  0.133304  0.216223  0  4.239394  0
S  S20  1  0.17188462  0.61067737  0.64355622  1  0  -0.187856  0  2.28661  0  0  -0.156948  0  2.642846  0  0  -0.173974  0  2.638281  0  0  -0.083982  -0.14579  0  2.646151  0
S  S21  1  0.78164471  0.38906230  0.14131427  1  0  -0.188274  0  2.287027  0  0  -0.15732  0  2.644487  0  0  -0.174246  0  2.639682  0  0  -0.083584  -0.146224  0  2.647803  0
S  S22  1  0.02925095  0.08481491  0.82148605  1  0  -0.185927  0  2.323554  0  0  -0.155446  0  2.684049  0  0  -0.173075  0  2.680333  0  0  -0.085156  -0.143771  0  2.686603  0
S  S23  1  0.11475997  0.91131396  0.32261947  1  0  -0.186478  0  2.321491  0  0  -0.15611  0  2.681422  0  0  -0.173775  0  2.677743  0  0  -0.086329  -0.144422  0  2.683948  0
Br  Br24  1  0.45303297  0.05244202  0.06970539  1  0  -0.003476  0  1.38852  0  0  0.001941  0  1.669322  0  0  -0.005467  0  1.666376  0  0  0.075672  0.007557  0  1.671433  0
Br  Br25  1  0.50221930  0.95196963  0.57095644  1  0  -0.005154  0  1.38207  0  0  0.000323  0  1.660602  0  0  -0.006988  0  1.657832  0  0  0.074073  0.005916  0  1.662921  0
N  N26  1  0.99239100  0.59471296  0.91129031  1  0  -0.322555  0  3.188545  0  0  -0.24932  0  3.458313  0  0  -0.271849  0  3.47673  0  0  -0.303963  -0.234064  0  3.445301  0
N  N27  1  0.59014004  0.40283388  0.40898005  1  0  -0.321632  0  3.188332  0  0  -0.248177  0  3.457311  0  0  -0.270783  0  3.475965  0  0  -0.302842  -0.232823  0  3.444223  0
N  N28  1  0.18903051  0.68300876  0.03918172  1  0  -0.343029  0  3.089765  0  0  -0.296394  0  3.368814  0  0  -0.313904  0  3.383683  0  0  -0.315639  -0.284433  0  3.35833  0
N  N29  1  0.87445306  0.31789409  0.53668277  1  0  -0.342746  0  3.086429  0  0  -0.297512  0  3.366679  0  0  -0.31476  0  3.381359  0  0  -0.316169  -0.285664  0  3.356381  0
N  N30  1  0.57071419  0.59967725  0.75236394  1  0  -0.455671  0  2.770136  0  0  -0.410385  0  3.029747  0  0  -0.429391  0  3.039783  0  0  -0.345162  -0.397575  0  3.022883  0
N  N31  1  0.16862394  0.39877245  0.25124102  1  0  -0.456168  0  2.773777  0  0  -0.410903  0  3.034831  0  0  -0.429867  0  3.044703  0  0  -0.344886  -0.398118  0  3.028076  0
N  N32  1  0.51956742  0.17222296  0.81649797  1  0  -0.45989  0  2.734867  0  0  -0.423452  0  2.992101  0  0  -0.439911  0  3.003076  0  0  -0.34776  -0.412333  0  2.984623  0
N  N33  1  0.68899296  0.82885234  0.31465682  1  0  -0.457933  0  2.732254  0  0  -0.4221  0  2.989297  0  0  -0.438424  0  3.000197  0  0  -0.346861  -0.411061  0  2.98188  0
