# generated using pymatgen
data_DyH6C4O6F
_symmetry_space_group_name_H-M   'P 1'
_cell_length_a   6.71237810
_cell_length_b   6.71236440
_cell_length_c   8.83859486
_cell_angle_alpha   108.69357816
_cell_angle_beta   108.69329874
_cell_angle_gamma   93.95916240
_symmetry_Int_Tables_number   1
_chemical_formula_structural   DyH6C4O6F
_chemical_formula_sum   'Dy2 H12 C8 O12 F2'
_cell_volume   350.71507309
_cell_formula_units_Z   2
loop_
 _symmetry_equiv_pos_site_id
 _symmetry_equiv_pos_as_xyz
  1  'x, y, z'
loop_
 _atom_site_type_symbol
 _atom_site_label
 _atom_site_symmetry_multiplicity
 _atom_site_fract_x
 _atom_site_fract_y
 _atom_site_fract_z
 _atom_site_occupancy
 _atom_site_pbe_bader_spin_density
 _atom_site_pbe_cm5_charge
 _atom_site_pbe_ddec_charge
 _atom_site_pbe_ddec_spin_density
 _atom_site_pbe_ddec_sum_bond_order
 _atom_site_pbe_magmom
Dy  Dy0  1  0.90257486  0.90258490  0.26439174  1  0  1.483048  2.095869  0  2.17578  0
Dy  Dy1  1  0.09741684  0.09741870  0.73561061  1  0  1.483075  2.095981  0  2.17572  0
H  H2  1  0.44734952  0.76729827  0.44725068  1  0  0.11736  0.118797  0  0.98296  0
H  H3  1  0.23270087  0.55265228  0.55274562  1  0  0.117319  0.118672  0  0.98298  0
H  H4  1  0.55264486  0.23269410  0.55274171  1  0  0.117334  0.118741  0  0.982851  0
H  H5  1  0.76730052  0.44735302  0.44725493  1  0  0.117324  0.118698  0  0.982944  0
H  H6  1  0.33945127  0.55698611  0.24164704  1  0  0.124108  0.126794  0  1.001205  0
H  H7  1  0.44302149  0.66055102  0.75834556  1  0  0.124088  0.126761  0  1.001259  0
H  H8  1  0.66054866  0.44301113  0.75834557  1  0  0.124087  0.126771  0  1.001263  0
H  H9  1  0.55698279  0.33945275  0.24165644  1  0  0.1241  0.126804  0  1.001239  0
H  H10  1  0.75098153  0.90667057  0.91344721  1  0  0.30634  0.395704  0  0.940424  0
H  H11  1  0.09332870  0.24900650  0.08655688  1  0  0.30634  0.395753  0  0.940338  0
H  H12  1  0.24903335  0.09333162  0.08654223  1  0  0.306378  0.395742  0  0.94037  0
H  H13  1  0.90667132  0.75098134  0.91345162  1  0  0.306339  0.395709  0  0.940421  0
C  C14  1  0.40614188  0.86651888  0.23194508  1  0  0.235283  0.660629  0  4.12985  0
C  C15  1  0.13349446  0.59385944  0.76806377  1  0  0.235449  0.660826  0  4.129378  0
C  C16  1  0.59385467  0.13347676  0.76805200  1  0  0.235374  0.660708  0  4.129626  0
C  C17  1  0.86651281  0.40615237  0.23194086  1  0  0.235376  0.660775  0  4.129479  0
C  C18  1  0.45845048  0.70601028  0.31960114  1  0  -0.058447  -0.137114  0  3.863997  0
C  C19  1  0.29399990  0.54154929  0.68040172  1  0  -0.058351  -0.136875  0  3.863874  0
C  C20  1  0.54155226  0.29399350  0.68040389  1  0  -0.058401  -0.136974  0  3.863861  0
C  C21  1  0.70600251  0.45845284  0.31959831  1  0  -0.058382  -0.136997  0  3.86387  0
O  O22  1  0.53804334  0.92714089  0.17306613  1  0  -0.37864  -0.622233  0  2.245298  0
O  O23  1  0.07288446  0.46195122  0.82694839  1  0  -0.378854  -0.622432  0  2.245155  0
O  O24  1  0.46194334  0.07286101  0.82693349  1  0  -0.378731  -0.622348  0  2.245137  0
O  O25  1  0.92711717  0.53804617  0.17305598  1  0  -0.378668  -0.622265  0  2.24538  0
O  O26  1  0.23082299  0.93335863  0.21974350  1  0  -0.382849  -0.659279  0  2.29997  0
O  O27  1  0.06665399  0.76917537  0.78026488  1  0  -0.382813  -0.659312  0  2.299968  0
O  O28  1  0.76916889  0.06663699  0.78025813  1  0  -0.382844  -0.659225  0  2.299955  0
O  O29  1  0.93336101  0.23082694  0.21973594  1  0  -0.382887  -0.659333  0  2.299681  0
O  O30  1  0.66958606  0.66958864  0.33088032  1  0  -0.267606  -0.28797  0  2.73659  0
O  O31  1  0.33041481  0.33041350  0.66912274  1  0  -0.267568  -0.288024  0  2.736651  0
O  O32  1  0.79507919  0.79507972  0.96167521  1  0  -0.64066  -0.843331  0  2.136632  0
O  O33  1  0.20492105  0.20491914  0.03832013  1  0  -0.640693  -0.843399  0  2.136615  0
F  F34  1  0.12954923  0.87044505  0.49999758  1  0  -0.501191  -0.731306  0  1.067848  0
F  F35  1  0.87044272  0.12956011  0.50000181  1  0  -0.501137  -0.731319  0  1.067944  0
