# generated using pymatgen
data_CdNiH10(C2N)6
_symmetry_space_group_name_H-M   'P 1'
_cell_length_a   6.91363968
_cell_length_b   7.68695325
_cell_length_c   9.73302429
_cell_angle_alpha   89.96904834
_cell_angle_beta   92.69041251
_cell_angle_gamma   90.78891269
_symmetry_Int_Tables_number   1
_chemical_formula_structural   CdNiH10(C2N)6
_chemical_formula_sum   'Cd1 Ni1 H10 C12 N6'
_cell_volume   516.64073857
_cell_formula_units_Z   1
loop_
 _symmetry_equiv_pos_site_id
 _symmetry_equiv_pos_as_xyz
  1  'x, y, z'
loop_
 _atom_site_type_symbol
 _atom_site_label
 _atom_site_symmetry_multiplicity
 _atom_site_fract_x
 _atom_site_fract_y
 _atom_site_fract_z
 _atom_site_occupancy
 _atom_site_pbe_bader_charge
 _atom_site_pbe_bader_spin_density
 _atom_site_pbe_cm5_charge
 _atom_site_pbe_ddec_charge
 _atom_site_pbe_ddec_spin_density
 _atom_site_pbe_ddec_sum_bond_order
 _atom_site_pbe_magmom
Cd  Cd0  1  0.99999707  0.00000001  0.99999859  1  1.306642  -1e-06  0.824759  0.872462  1e-06  2.46542  0.0
Ni  Ni1  1  0.49999481  0.50000064  0.00000937  1  0.6494  3e-06  0.40704  0.134297  6e-06  3.846688  0.0
H  H2  1  0.93954564  0.98007931  0.30885117  1  0.418707  -0.002615  0.28832  0.242382  0.004853  0.966183  -0.003
H  H3  1  0.62764070  0.81086539  0.19684332  1  0.104699  0.085852  0.129128  0.127939  0.070161  0.953131  0.061
H  H4  1  0.58064047  0.02310673  0.15135450  1  0.123308  0.040898  0.12198  0.121026  0.032807  0.960772  0.03
H  H5  1  0.80484032  0.83464911  0.48544309  1  0.037399  0.000116  0.099861  0.097183  -0.000235  1.003564  0.0
H  H6  1  0.33420461  0.11702331  0.28821963  1  0.133695  0.000527  0.098719  0.108225  0.000432  1.049004  0.0
H  H7  1  0.06046073  0.01991223  0.69114400  1  0.418695  0.002613  0.288319  0.242311  -0.004862  0.966274  0.003
H  H8  1  0.37237008  0.18913136  0.80315405  1  0.104713  -0.085839  0.129132  0.1279  -0.070155  0.95311  -0.061
H  H9  1  0.41935727  0.97689127  0.84864046  1  0.123364  -0.040906  0.121974  0.120982  -0.032816  0.960746  -0.03
H  H10  1  0.19515597  0.16534888  0.51455183  1  0.037441  -0.000116  0.099842  0.097173  0.000235  1.003473  0.0
H  H11  1  0.66579309  0.88297079  0.71177531  1  0.133716  -0.000527  0.098724  0.108261  -0.000432  1.048895  0.0
C  C12  1  0.68324192  0.66059366  0.95067730  1  0.811785  0.000249  0.020997  0.050512  8.2e-05  3.830601  0.0
C  C13  1  0.33701097  0.67922932  0.03587620  1  0.81077  0.001078  0.020435  0.05068  0.00106  3.837363  0.0
C  C14  1  0.66048540  0.94721620  0.23158404  1  0.312935  0.018189  -0.053404  -0.072863  0.026552  4.010293  -0.002
C  C15  1  0.57980514  0.97446218  0.37095371  1  -0.022772  0.004308  -0.014844  0.08728  0.003445  3.983237  0.002
C  C16  1  0.67194685  0.90949675  0.49107503  1  -0.05811  0.001445  -0.098004  -0.146249  0.00076  4.017902  0.0
C  C17  1  0.40635570  0.06470504  0.38109417  1  -0.084625  0.003977  -0.092735  -0.125813  0.003925  3.97398  0.003
C  C18  1  0.31675311  0.33940944  0.04932993  1  0.812112  -0.000249  0.021113  0.050633  -8.2e-05  3.830979  0.0
C  C19  1  0.66298271  0.32077242  0.96414024  1  0.811077  -0.001078  0.020422  0.050633  -0.001059  3.837264  0.0
C  C20  1  0.33951819  0.05278572  0.76841316  1  0.31271  -0.01819  -0.053386  -0.072646  -0.026545  4.01004  0.002
C  C21  1  0.42019695  0.02553583  0.62904240  1  -0.023056  -0.004306  -0.014827  0.087244  -0.003442  3.983318  -0.002
C  C22  1  0.32805957  0.09049737  0.50892324  1  -0.057667  -0.001446  -0.098067  -0.146343  -0.00076  4.017938  0.0
C  C23  1  0.59364349  0.93529428  0.61889981  1  -0.084485  -0.003975  -0.09276  -0.125876  -0.003924  3.97405  -0.003
N  N24  1  0.79673557  0.76816891  0.92255987  1  -1.348852  -0.003586  -0.372674  -0.375371  -0.004412  3.227041  -0.002
N  N25  1  0.23707648  0.79737017  0.05685051  1  -1.343782  0.003003  -0.372992  -0.371022  0.00328  3.241558  0.002
N  N26  1  0.86234196  0.97302340  0.21600465  1  -0.873562  0.82221  -0.390682  -0.297277  0.841979  2.716179  0.57
N  N27  1  0.20326522  0.23184471  0.07743627  1  -1.348844  0.003586  -0.372775  -0.375424  0.004412  3.227403  0.002
N  N28  1  0.76291427  0.20263419  0.94316073  1  -1.343917  -0.003002  -0.372937  -0.370954  -0.003278  3.241561  -0.002
N  N29  1  0.13766164  0.02698113  0.78399152  1  -0.873496  -0.822219  -0.390678  -0.297284  -0.841987  2.716242  -0.57
