# generated using pymatgen
data_Zn4H7C14BrO13
_symmetry_space_group_name_H-M   'P 1'
_cell_length_a   10.90980113
_cell_length_b   10.87761380
_cell_length_c   13.33019150
_cell_angle_alpha   100.09027920
_cell_angle_beta   94.64893021
_cell_angle_gamma   96.68796831
_symmetry_Int_Tables_number   1
_chemical_formula_structural   Zn4H7C14BrO13
_chemical_formula_sum   'Zn4 H7 C14 Br1 O13'
_cell_volume   1538.51393089
_cell_formula_units_Z   1
loop_
 _symmetry_equiv_pos_site_id
 _symmetry_equiv_pos_as_xyz
  1  'x, y, z'
loop_
 _atom_site_type_symbol
 _atom_site_label
 _atom_site_symmetry_multiplicity
 _atom_site_fract_x
 _atom_site_fract_y
 _atom_site_fract_z
 _atom_site_occupancy
 _atom_site_pbe_bader_charge
 _atom_site_pbe_bader_spin_density
 _atom_site_pbe_cm5_charge
 _atom_site_pbe_ddec_charge
 _atom_site_pbe_ddec_spin_density
 _atom_site_pbe_ddec_sum_bond_order
 _atom_site_pbe_magmom
Zn  Zn0  1  0.40773312  0.60192840  0.57971976  1  1.31645  0  0.672827  0.961785  0  2.378635  0
Zn  Zn1  1  0.59418314  0.40129540  0.59144222  1  1.316533  0  0.673554  0.966938  0  2.368824  0
Zn  Zn2  1  0.61844346  0.58363982  0.43035516  1  1.318726  0  0.674313  0.968634  0  2.376555  0
Zn  Zn3  1  0.38518768  0.36411408  0.39570783  1  1.315233  0  0.67286  0.974989  0  2.325617  0
H  H4  1  0.50864830  0.40314577  0.91455808  1  0.07926  0  0.118098  0.1284  0  0.96485  0
H  H5  1  0.35302021  0.96676278  0.46189039  1  0.119975  0  0.120697  0.143109  0  0.966391  0
H  H6  1  0.01400440  0.51284956  0.62057563  1  0.120444  0  0.121712  0.142959  0  0.965447  0
H  H7  1  0.63424194  0.00828191  0.53356604  1  0.143438  0  0.121154  0.143019  0  0.966072  0
H  H8  1  0.46335402  0.34859406  0.07011004  1  0.088241  0  0.119396  0.150404  0  0.969832  0
H  H9  1  0.54133078  0.68872008  0.91527251  1  0.090626  0  0.103709  0.123526  0  1.020485  0
H  H10  1  0.99076198  0.46101479  0.38359505  1  0.103136  0  0.120164  0.142073  0  0.966356  0
C  C11  1  0.83276725  0.49767920  0.53015506  1  1.583728  0  0.227206  0.64709  0  4.16017  0
C  C12  1  0.46435333  0.15423874  0.48561100  1  1.584843  0  0.226999  0.650431  0  4.158707  0
C  C13  1  0.17124727  0.47507240  0.47449381  1  1.538005  0  0.226886  0.647145  0  4.154823  0
C  C14  1  0.49840082  0.45402263  0.22587003  1  1.555081  0  0.220149  0.662318  0  4.164194  0
C  C15  1  0.51751716  0.55095129  0.77224573  1  1.566445  0  0.224616  0.65332  0  4.15482  0
C  C16  1  0.53132975  0.58790447  0.88503282  1  -0.038338  0  -0.088641  -0.205926  0  3.88371  0
C  C17  1  0.52335056  0.50368881  0.94801134  1  0.017205  0  -0.074704  -0.080963  0  3.987813  0
C  C18  1  0.52812667  0.81889470  0.50894421  1  1.574116  0  0.226124  0.646081  0  4.157578  0
C  C19  1  0.49792814  0.44263074  0.11380251  1  0.038683  0  -0.094  -0.286578  0  3.844231  0
C  C20  1  0.52974440  0.53336513  0.05898214  1  -0.060568  0  0.002872  0.153424  0  3.968399  0
C  C21  1  0.03549009  0.47969562  0.46193203  1  0.010585  0  -0.072861  -0.17153  0  3.872088  0
C  C22  1  0.44593309  0.01706882  0.48699646  1  -0.104517  0  -0.077102  -0.181522  0  3.878648  0
C  C23  1  0.96957565  0.50016143  0.54244258  1  -0.042301  0  -0.070301  -0.162106  0  3.867296  0
C  C24  1  0.54087090  0.95714131  0.51321655  1  0.004949  0  -0.06826  -0.15616  0  3.869942  0
Br  Br25  1  0.58086063  0.70480011  0.12070887  1  -0.018117  0  0.048178  -0.033206  0  1.405689  0
O  O26  1  0.50041467  0.48451342  0.49775721  1  -1.235447  0  -0.57625  -1.040803  0  2.553946  0
O  O27  1  0.56012511  0.21938151  0.53914724  1  -1.184109  0  -0.31778  -0.55489  0  2.311712  0
O  O28  1  0.62203120  0.76575328  0.48197597  1  -1.161813  0  -0.31539  -0.546617  0  2.266947  0
O  O29  1  0.78546100  0.53545312  0.45214053  1  -1.174381  0  -0.313132  -0.543372  0  2.29491  0
O  O30  1  0.38210586  0.19445216  0.43038911  1  -1.154691  0  -0.314406  -0.545638  0  2.267644  0
O  O31  1  0.21622137  0.41394525  0.39840634  1  -1.152599  0  -0.313008  -0.544223  0  2.265614  0
O  O32  1  0.56616291  0.54731619  0.28322016  1  -1.167953  0  -0.317343  -0.555154  0  2.391247  0
O  O33  1  0.54609852  0.44395087  0.73176225  1  -1.17082  0  -0.318288  -0.551587  0  2.281265  0
O  O34  1  0.47663471  0.63250026  0.72406008  1  -1.157461  0  -0.320135  -0.547151  0  2.268764  0
O  O35  1  0.43014837  0.36567410  0.25534155  1  -1.159718  0  -0.31998  -0.549586  0  2.253458  0
O  O36  1  0.77433963  0.45720610  0.59979642  1  -1.158112  0  -0.315779  -0.547873  0  2.269864  0
O  O37  1  0.42690340  0.76499424  0.53226077  1  -1.170743  0  -0.313957  -0.546322  0  2.27939  0
O  O38  1  0.23139230  0.53260924  0.55930528  1  -1.174016  0  -0.320198  -0.554434  0  2.295625  0
