# generated using pymatgen
data_CuH7C7SN2
_symmetry_space_group_name_H-M   'P 1'
_cell_length_a   5.71965621
_cell_length_b   7.40227791
_cell_length_c   9.55439331
_cell_angle_alpha   97.51259138
_cell_angle_beta   99.99839423
_cell_angle_gamma   101.65758230
_symmetry_Int_Tables_number   1
_chemical_formula_structural   CuH7C7SN2
_chemical_formula_sum   'Cu2 H14 C14 S2 N4'
_cell_volume   384.34777738
_cell_formula_units_Z   2
loop_
 _symmetry_equiv_pos_site_id
 _symmetry_equiv_pos_as_xyz
  1  'x, y, z'
loop_
 _atom_site_type_symbol
 _atom_site_label
 _atom_site_symmetry_multiplicity
 _atom_site_fract_x
 _atom_site_fract_y
 _atom_site_fract_z
 _atom_site_occupancy
 _atom_site_hle17_bader_spin_density
 _atom_site_hle17_ddec_charge
 _atom_site_hle17_ddec_spin_density
 _atom_site_hle17_ddec_sum_bond_order
 _atom_site_hle17_magmom
 _atom_site_hse06_10hf_bader_spin_density
 _atom_site_hse06_10hf_ddec_charge
 _atom_site_hse06_10hf_ddec_spin_density
 _atom_site_hse06_10hf_ddec_sum_bond_order
 _atom_site_hse06_10hf_magmom
 _atom_site_hse06_bader_spin_density
 _atom_site_hse06_ddec_charge
 _atom_site_hse06_ddec_spin_density
 _atom_site_hse06_ddec_sum_bond_order
 _atom_site_hse06_magmom
 _atom_site_pbe_bader_spin_density
 _atom_site_pbe_cm5_charge
 _atom_site_pbe_ddec_charge
 _atom_site_pbe_ddec_spin_density
 _atom_site_pbe_ddec_sum_bond_order
 _atom_site_pbe_magmom
Cu  Cu0  1  0.64280031  0.99826419  0.66704159  1  0  0.439482  0  2.044743  0  0  0.338473  0  2.535269  0  0  0.339453  0  2.490968  0  0  0.494466  0.340312  0  2.562231  0
Cu  Cu1  1  0.35717285  0.00173941  0.33294837  1  0  0.439531  0  2.044791  0  0  0.338529  0  2.535277  0  0  0.339522  0  2.491013  0  0  0.494456  0.340406  0  2.562116  0
H  H2  1  0.85686846  0.80233395  0.91630409  1  0  0.118585  0  0.96311  0  0  0.141068  0  1.024929  0  0  0.142035  0  1.025457  0  0  0.09333  0.140318  0  1.024661  0
H  H3  1  0.14315873  0.19766546  0.08369457  1  0  0.118645  0  0.963195  0  0  0.141099  0  1.025029  0  0  0.142067  0  1.025554  0  0  0.093335  0.140341  0  1.024766  0
H  H4  1  0.74328318  0.00193850  0.96181245  1  0  0.115966  0  0.958551  0  0  0.136817  0  1.02377  0  0  0.139271  0  1.021593  0  0  0.091433  0.135298  0  1.024834  0
H  H5  1  0.25672094  0.99805768  0.03817560  1  0  0.115981  0  0.958561  0  0  0.136834  0  1.023763  0  0  0.139286  0  1.021587  0  0  0.091483  0.135316  0  1.024823  0
H  H6  1  0.71675972  0.82178136  0.06885903  1  0  0.123068  0  0.967509  0  0  0.142239  0  1.029054  0  0  0.142684  0  1.030849  0  0  0.090601  0.142505  0  1.026828  0
H  H7  1  0.28325866  0.17822968  0.93113754  1  0  0.12314  0  0.967368  0  0  0.142293  0  1.028949  0  0  0.142713  0  1.030775  0  0  0.090605  0.14256  0  1.02672  0
H  H8  1  0.34062456  0.59263857  0.01599556  1  0  0.097927  0  0.977682  0  0  0.107174  0  1.044507  0  0  0.10965  0  1.044881  0  0  0.099726  0.105091  0  1.04479  0
H  H9  1  0.65936537  0.40736563  0.98400310  1  0  0.097957  0  0.977726  0  0  0.107211  0  1.044541  0  0  0.109693  0  1.044904  0  0  0.099721  0.105128  0  1.044821  0
H  H10  1  0.93384921  0.44162154  0.85032532  1  0  0.085674  0  0.959599  0  0  0.097633  0  1.02162  0  0  0.100161  0  1.019548  0  0  0.101323  0.095406  0  1.023921  0
H  H11  1  0.06614740  0.55837529  0.14967590  1  0  0.085664  0  0.959647  0  0  0.097596  0  1.02171  0  0  0.10016  0  1.019594  0  0  0.101322  0.095369  0  1.024009  0
H  H12  1  0.84360346  0.54286640  0.60892680  1  0  0.105221  0  0.961959  0  0  0.114137  0  1.026681  0  0  0.116632  0  1.027271  0  0  0.100044  0.112331  0  1.026348  0
H  H13  1  0.15641977  0.45712972  0.39107948  1  0  0.105112  0  0.961448  0  0  0.114007  0  1.026294  0  0  0.116501  0  1.026889  0  0  0.09999  0.112201  0  1.025961  0
H  H14  1  0.16918334  0.76733908  0.53794804  1  0  0.070985  0  0.983841  0  0  0.079603  0  1.051432  0  0  0.081724  0  1.049146  0  0  0.10632  0.077895  0  1.053295  0
H  H15  1  0.83081682  0.23265191  0.46205468  1  0  0.070892  0  0.983639  0  0  0.079552  0  1.051218  0  0  0.081653  0  1.048942  0  0  0.10628  0.077844  0  1.053084  0
C  C16  1  0.17109310  0.14956660  0.65285696  1  0  0.297268  0  3.978158  0  0  0.28518  0  4.263256  0  0  0.302496  0  4.279634  0  0  0.147801  0.274119  0  4.250873  0
C  C17  1  0.82888895  0.85044057  0.34714154  1  0  0.297301  0  3.97779  0  0  0.285205  0  4.262895  0  0  0.302514  0  4.279277  0  0  0.147884  0.274144  0  4.250509  0
C  C18  1  0.46737097  0.75560599  0.86304780  1  0  0.30711  0  3.711716  0  0  0.316108  0  3.947269  0  0  0.325055  0  3.967097  0  0  0.115268  0.309839  0  3.934464  0
C  C19  1  0.53264587  0.24439910  0.13695302  1  0  0.307084  0  3.712271  0  0  0.316111  0  3.947765  0  0  0.325061  0  3.967593  0  0  0.115304  0.309843  0  3.934958  0
C  C20  1  0.29482185  0.62612250  0.90833722  1  0  -0.193624  0  3.722784  0  0  -0.208321  0  3.964928  0  0  -0.217695  0  3.987111  0  0  -0.094291  -0.20202  0  3.950057  0
C  C21  1  0.70516197  0.37387506  0.09165580  1  0  -0.19373  0  3.722335  0  0  -0.208438  0  3.96447  0  0  -0.217818  0  3.986656  0  0  -0.094325  -0.202133  0  3.949594  0
C  C22  1  0.06928273  0.54438593  0.81742677  1  0  0.003573  0  3.746838  0  0  -0.013736  0  3.990433  0  0  -0.008227  0  4.008424  0  0  -0.072856  -0.017422  0  3.978531  0
C  C23  1  0.93073749  0.45561925  0.18259321  1  0  0.00386  0  3.746503  0  0  -0.013417  0  3.990079  0  0  -0.007925  0  4.008051  0  0  -0.072648  -0.017109  0  3.97818  0
C  C24  1  0.01954303  0.59655463  0.68246680  1  0  -0.121178  0  3.726791  0  0  -0.136032  0  3.981004  0  0  -0.144068  0  4.00212  0  0  -0.090417  -0.130879  0  3.966824  0
C  C25  1  0.98041838  0.40342943  0.31752043  1  0  -0.121278  0  3.727491  0  0  -0.136157  0  3.981739  0  0  -0.144196  0  4.00285  0  0  -0.090587  -0.131015  0  3.967594  0
C  C26  1  0.19997250  0.72298170  0.64252157  1  0  0.133396  0  3.70301  0  0  0.103141  0  3.949703  0  0  0.11107  0  3.967017  0  0  0.037326  0.098049  0  3.937992  0
C  C27  1  0.80006697  0.27702901  0.35747549  1  0  0.133816  0  3.702494  0  0  0.103515  0  3.949216  0  0  0.111471  0  3.966544  0  0  0.037564  0.09842  0  3.937492  0
C  C28  1  0.70847398  0.84983124  0.95862218  1  0  -0.374768  0  3.698646  0  0  -0.456375  0  3.928439  0  0  -0.458489  0  3.934713  0  0  -0.244897  -0.45495  0  3.923538  0
C  C29  1  0.29154349  0.15017124  0.04137516  1  0  -0.374938  0  3.698793  0  0  -0.456505  0  3.928583  0  0  -0.458585  0  3.93485  0  0  -0.245008  -0.455077  0  3.923683  0
S  S30  1  0.55415227  0.76228309  0.36843721  1  0  -0.34354  0  2.435789  0  0  -0.313854  0  2.836423  0  0  -0.322387  0  2.817857  0  0  -0.162382  -0.308865  0  2.84763  0
S  S31  1  0.44582675  0.23773125  0.63158206  1  0  -0.343462  0  2.436042  0  0  -0.313791  0  2.836678  0  0  -0.322317  0  2.818095  0  0  -0.162341  -0.30881  0  2.847898  0
N  N32  1  0.97217056  0.08455978  0.66807821  1  0  -0.515283  0  3.187099  0  0  -0.458516  0  3.521324  0  0  -0.470747  0  3.518297  0  0  -0.4452  -0.450865  0  3.52225  0
N  N33  1  0.02779664  0.91543318  0.33192337  1  0  -0.515265  0  3.187064  0  0  -0.45848  0  3.521257  0  0  -0.470719  0  3.518273  0  0  -0.445223  -0.450828  0  3.522157  0
N  N34  1  0.42002483  0.80113312  0.72938749  1  0  -0.349955  0  3.349451  0  0  -0.274809  0  3.630613  0  0  -0.288703  0  3.639976  0  0  -0.367642  -0.266239  0  3.624019  0
N  N35  1  0.57996582  0.19885883  0.27060311  1  0  -0.350213  0  3.349032  0  0  -0.275095  0  3.630269  0  0  -0.288998  0  3.639634  0  0  -0.367764  -0.266525  0  3.62367  0
