# generated using pymatgen
data_Cu2H3C5(IN)2
_symmetry_space_group_name_H-M   'P 1'
_cell_length_a   7.38071214
_cell_length_b   8.31205811
_cell_length_c   8.63677892
_cell_angle_alpha   80.67525840
_cell_angle_beta   64.71994901
_cell_angle_gamma   67.70165071
_symmetry_Int_Tables_number   1
_chemical_formula_structural   Cu2H3C5(IN)2
_chemical_formula_sum   'Cu4 H6 C10 I4 N4'
_cell_volume   443.28546365
_cell_formula_units_Z   2
loop_
 _symmetry_equiv_pos_site_id
 _symmetry_equiv_pos_as_xyz
  1  'x, y, z'
loop_
 _atom_site_type_symbol
 _atom_site_label
 _atom_site_symmetry_multiplicity
 _atom_site_fract_x
 _atom_site_fract_y
 _atom_site_fract_z
 _atom_site_occupancy
 _atom_site_pbe_bader_spin_density
 _atom_site_pbe_cm5_charge
 _atom_site_pbe_ddec_charge
 _atom_site_pbe_ddec_spin_density
 _atom_site_pbe_ddec_sum_bond_order
 _atom_site_pbe_magmom
Cu  Cu0  1  0.82164796  0.08308015  0.62312059  1  0  0.230305  0.139732  0  2.743986  0
Cu  Cu1  1  0.44491432  0.08312626  0.37681580  1  0  0.22975  0.138571  0  2.743752  0
Cu  Cu2  1  0.17837029  0.91692578  0.37683963  1  0  0.230382  0.13983  0  2.743969  0
Cu  Cu3  1  0.55509604  0.91686277  0.62318161  1  0  0.229783  0.138589  0  2.743772  0
H  H4  1  0.96707373  0.32445997  0.72227816  1  0  0.095875  0.092575  0  1.056813  0
H  H5  1  0.68913400  0.32456370  0.27786474  1  0  0.095922  0.093339  0  1.055783  0
H  H6  1  0.03294049  0.67553693  0.27773288  1  0  0.095908  0.092645  0  1.056643  0
H  H7  1  0.31092853  0.67538913  0.72214718  1  0  0.095985  0.093411  0  1.05577  0
H  H8  1  0.65795570  0.97868174  0.99994055  1  0  0.118053  0.066719  0  1.026617  0
H  H9  1  0.34206218  0.02130993  0.00005280  1  0  0.118099  0.066721  0  1.026582  0
C  C10  1  0.88388626  0.27451293  0.84672120  1  0  0.062575  0.089114  0  3.813045  0
C  C11  1  0.73056215  0.27452409  0.15335412  1  0  0.062277  0.088033  0  3.813081  0
C  C12  1  0.11609604  0.72550205  0.15328092  1  0  0.062565  0.088949  0  3.812966  0
C  C13  1  0.26945063  0.72547018  0.84664610  1  0  0.062227  0.087771  0  3.813474  0
C  C14  1  0.85766407  0.33576916  0.00005836  1  0  0.003203  0.054793  0  4.097004  0
C  C15  1  0.14232262  0.66424973  0.99993630  1  0  0.003183  0.0551  0  4.096951  0
C  C16  1  0.70454547  0.08847592  0.99995321  1  0  0.165997  0.21412  0  3.890969  0
C  C17  1  0.29542790  0.91154290  0.00004270  1  0  0.165784  0.213973  0  3.89079  0
C  C18  1  0.95463852  0.45228461  0.00007484  1  0  -0.038106  -0.061501  0  4.100593  0
C  C19  1  0.04538797  0.54769802  0.99993614  1  0  -0.038044  -0.061638  0  4.100572  0
I  I20  1  0.94028578  0.74629549  0.61957746  1  0  -0.164647  -0.25892  0  2.293618  0
I  I21  1  0.56007192  0.74629678  0.38010306  1  0  -0.164352  -0.259022  0  2.294028  0
I  I22  1  0.05969026  0.25371558  0.38043841  1  0  -0.164621  -0.258894  0  2.293748  0
I  I23  1  0.43989934  0.25369338  0.61989526  1  0  -0.16435  -0.258981  0  2.294002  0
N  N24  1  0.80743122  0.15102627  0.84732100  1  0  -0.348404  -0.198907  0  3.605644  0
N  N25  1  0.65472869  0.15104126  0.15265705  1  0  -0.348508  -0.198738  0  3.604698  0
N  N26  1  0.19254219  0.84899518  0.15268118  1  0  -0.348445  -0.198922  0  3.605857  0
N  N27  1  0.34526642  0.84896464  0.84733929  1  0  -0.348397  -0.198465  0  3.604608  0
