# generated using pymatgen
data_MnH4C4N3O5
_symmetry_space_group_name_H-M   'P 1'
_cell_length_a   6.90484285
_cell_length_b   7.31501613
_cell_length_c   9.04188601
_cell_angle_alpha   99.11517193
_cell_angle_beta   99.07553866
_cell_angle_gamma   112.08907159
_symmetry_Int_Tables_number   1
_chemical_formula_structural   MnH4C4N3O5
_chemical_formula_sum   'Mn2 H8 C8 N6 O10'
_cell_volume   405.87409968
_cell_formula_units_Z   2
loop_
 _symmetry_equiv_pos_site_id
 _symmetry_equiv_pos_as_xyz
  1  'x, y, z'
loop_
 _atom_site_type_symbol
 _atom_site_label
 _atom_site_symmetry_multiplicity
 _atom_site_fract_x
 _atom_site_fract_y
 _atom_site_fract_z
 _atom_site_occupancy
 _atom_site_hle17_ddec_charge
 _atom_site_hle17_ddec_spin_density
 _atom_site_hle17_ddec_sum_bond_order
 _atom_site_hle17_magmom
 _atom_site_hse06_10hf_ddec_charge
 _atom_site_hse06_10hf_ddec_spin_density
 _atom_site_hse06_10hf_ddec_sum_bond_order
 _atom_site_hse06_10hf_magmom
 _atom_site_hse06_ddec_charge
 _atom_site_hse06_ddec_spin_density
 _atom_site_hse06_ddec_sum_bond_order
 _atom_site_hse06_magmom
 _atom_site_pbe_cm5_charge
 _atom_site_pbe_ddec_charge
 _atom_site_pbe_ddec_spin_density
 _atom_site_pbe_ddec_sum_bond_order
 _atom_site_pbe_magmom
Mn  Mn0  1  0.74492216  0.97964813  0.77212014  1  1.13811  4.804779  1.76165  4.683  0.976483  4.73639  2.256781  4.549  1.035204  4.774399  2.189196  4.607  0.580527  0.930189  4.69858  2.307048  4.494
Mn  Mn1  1  0.25508319  0.02035335  0.22787998  1  1.138158  4.804784  1.761562  4.683  0.976548  4.736392  2.25668  4.549  1.035267  4.774401  2.189095  4.607  0.580564  0.930264  4.698582  2.306931  4.494
H  H2  1  0.80624281  0.70762359  0.45276155  1  0.136013  -0.000625  0.889977  0.0  0.149855  -0.000195  0.942011  0.0  0.152197  -0.000285  0.939049  0.0  0.169009  0.147973  -0.000102  0.944419  0.0
H  H3  1  0.19375615  0.29237333  0.54723718  1  0.136048  -0.000623  0.889968  0.0  0.14989  -0.000195  0.941998  0.0  0.152233  -0.000285  0.939035  0.0  0.169015  0.148007  -0.000102  0.944406  0.0
H  H4  1  0.12644111  0.46738212  0.75832172  1  0.136485  -0.000301  0.923312  0.0  0.145329  -0.00017  0.982202  0.0  0.148606  -0.00029  0.978124  0.0  0.157511  0.142678  -2.4e-05  0.98554  0.0
H  H5  1  0.87355283  0.53261310  0.24167956  1  0.136487  -0.000293  0.923296  0.0  0.145326  -0.00017  0.982189  0.0  0.148603  -0.00029  0.978112  0.0  0.157514  0.142677  -2.4e-05  0.985529  0.0
H  H6  1  0.01988726  0.27740893  0.00770083  1  0.387583  -7.4e-05  0.930918  0.001  0.346799  0.000745  1.01165  0.002  0.35786  0.000451  0.996046  0.001  0.290684  0.339018  0.00101  1.022572  0.002
H  H7  1  0.98011448  0.72259108  0.99229759  1  0.387574  -7.3e-05  0.930919  0.001  0.3468  0.000745  1.011639  0.002  0.357859  0.000451  0.996036  0.001  0.290692  0.339018  0.00101  1.02256  0.002
H  H8  1  0.17676676  0.20722741  0.93585875  1  0.423618  -0.000257  0.878208  0.001  0.39306  0.000628  0.940924  0.002  0.404797  0.000239  0.923796  0.002  0.294301  0.38465  0.001003  0.953155  0.003
H  H9  1  0.82323924  0.79277564  0.06414058  1  0.423609  -0.000258  0.878218  0.001  0.393048  0.000628  0.940941  0.002  0.404785  0.000239  0.923813  0.002  0.2943  0.384636  0.001003  0.953176  0.003
C  C10  1  0.87800098  0.67879197  0.55684706  1  0.185911  0.005682  3.591153  0.006  0.098746  0.008647  3.87493  0.009  0.113422  0.007071  3.883257  0.007  0.188038  0.088657  0.010709  3.869697  0.01
C  C11  1  0.12199797  0.32120501  0.44315057  1  0.185846  0.005674  3.591173  0.006  0.0987  0.008647  3.874949  0.009  0.113376  0.007068  3.883276  0.007  0.188037  0.088612  0.010708  3.869716  0.01
C  C12  1  0.04726244  0.55724421  0.71398763  1  0.18526  8e-05  3.587283  0.001  0.102466  0.000685  3.868799  0.001  0.114884  0.000108  3.877714  0.001  0.186778  0.094077  0.001277  3.863404  0.002
C  C13  1  0.95273572  0.44275423  0.28601127  1  0.185249  5.6e-05  3.587265  0.001  0.102452  0.000684  3.868789  0.001  0.114873  0.000108  3.877705  0.001  0.186755  0.094062  0.001277  3.863396  0.002
C  C14  1  0.40233173  0.90472522  0.50370542  1  0.539385  0.003779  3.916145  0.004  0.500074  0.009183  4.202544  0.008  0.530764  0.006294  4.196015  0.006  0.209166  0.478734  0.012249  4.205894  0.011
C  C15  1  0.59766299  0.09526860  0.49629348  1  0.53931  0.003772  3.916211  0.004  0.499979  0.009185  4.202638  0.008  0.530668  0.006297  4.196107  0.006  0.209111  0.478639  0.012252  4.20599  0.011
C  C16  1  0.51988841  0.91211216  0.02815572  1  0.532713  0.00231  3.930452  0.003  0.483565  0.007115  4.233377  0.007  0.513084  0.004706  4.229357  0.005  0.210761  0.463178  0.009601  4.234861  0.009
C  C17  1  0.48011656  0.08789824  0.97184916  1  0.532822  0.002296  3.930442  0.003  0.483676  0.007114  4.233353  0.007  0.513196  0.004703  4.229332  0.005  0.210826  0.463287  0.0096  4.23484  0.009
N  N18  1  0.88033956  0.75680386  0.69919213  1  -0.255731  0.023992  3.107395  0.008  -0.204989  0.03104  3.41732  0.008  -0.221758  0.027464  3.429343  0.006  -0.217873  -0.193142  0.03428  3.409565  0.01
N  N19  1  0.11965925  0.24319616  0.30080599  1  -0.255753  0.023997  3.107455  0.008  -0.205046  0.031042  3.417393  0.008  -0.221812  0.027464  3.429418  0.006  -0.217904  -0.193201  0.034282  3.40964  0.01
N  N20  1  0.98726627  0.68026910  0.79787766  1  -0.210605  0.000965  3.004526  0.003  -0.167156  0.002779  3.276013  0.005  -0.178924  0.001806  3.291672  0.004  -0.194412  -0.159563  0.003886  3.265811  0.006
N  N21  1  0.01273041  0.31972939  0.20211999  1  -0.210627  0.000967  3.004586  0.003  -0.167147  0.002777  3.276067  0.005  -0.178923  0.001807  3.291734  0.004  -0.194401  -0.159554  0.003886  3.265867  0.006
N  N22  1  0.98137518  0.55262952  0.56184137  1  0.026709  0.000829  3.550435  0.001  0.119191  0.002332  3.733503  0.002  0.111972  0.001484  3.745898  0.002  -0.099831  0.123522  0.003246  3.725642  0.003
N  N23  1  0.01862167  0.44736582  0.43815800  1  0.026791  0.000838  3.550341  0.001  0.119243  0.00233  3.733431  0.002  0.112024  0.001486  3.745826  0.002  -0.099797  0.123574  0.003246  3.725571  0.003
O  O24  1  0.43664007  0.80090941  0.59592370  1  -0.606904  0.032131  2.042505  0.025  -0.562184  0.040828  2.298285  0.031  -0.590663  0.035564  2.290102  0.026  -0.30659  -0.541012  0.046074  2.303144  0.035
O  O25  1  0.56335378  0.19908867  0.40408136  1  -0.606886  0.032132  2.042546  0.025  -0.562165  0.040827  2.298357  0.031  -0.590644  0.035566  2.290169  0.026  -0.306571  -0.540996  0.046074  2.303219  0.035
O  O26  1  0.22274328  0.86866783  0.41584646  1  -0.615371  0.033799  2.078139  0.025  -0.5612  0.041392  2.340034  0.029  -0.591322  0.03641  2.330962  0.025  -0.306604  -0.538668  0.04625  2.345286  0.033
O  O27  1  0.77725594  0.13132314  0.58414910  1  -0.615319  0.03381  2.078084  0.025  -0.561153  0.041392  2.340017  0.029  -0.591276  0.036411  2.330947  0.025  -0.306565  -0.538621  0.04625  2.345274  0.033
O  O28  1  0.63654943  0.84437841  0.95984708  1  -0.619528  0.031917  2.101939  0.022  -0.551208  0.040245  2.35146  0.027  -0.580468  0.035493  2.337204  0.023  -0.298417  -0.529495  0.044784  2.360536  0.031
O  O29  1  0.36345778  0.15563059  0.04015558  1  -0.619519  0.031918  2.102035  0.022  -0.551206  0.040245  2.351555  0.027  -0.580463  0.035494  2.337295  0.023  -0.298439  -0.529496  0.044784  2.360633  0.031
O  O30  1  0.43710207  0.84998568  0.13470225  1  -0.559651  0.029239  2.002216  0.024  -0.506954  0.036613  2.238667  0.029  -0.533234  0.031886  2.228668  0.025  -0.294678  -0.487416  0.041304  2.244784  0.034
O  O31  1  0.56290791  0.15002642  0.86530009  1  -0.559745  0.029253  2.002117  0.024  -0.507045  0.036612  2.238551  0.029  -0.53333  0.031889  2.228557  0.025  -0.294716  -0.487505  0.041304  2.244669  0.034
O  O32  1  0.04366276  0.23006347  0.90422212  1  -0.824033  0.031752  1.907773  0.019  -0.761895  0.041741  2.116515  0.025  -0.786438  0.037195  2.079215  0.021  -0.568393  -0.743399  0.045869  2.142539  0.028
O  O33  1  0.95634110  0.76993806  0.09577676  1  -0.824008  0.031751  1.907738  0.019  -0.76188  0.041741  2.116464  0.025  -0.786422  0.037195  2.079167  0.021  -0.568401  -0.743383  0.045869  2.142487  0.028
