# generated using pymatgen
data_AlH4C4Br3N2
_symmetry_space_group_name_H-M   'P 1'
_cell_length_a   6.53762372
_cell_length_b   6.53736713
_cell_length_c   11.88179559
_cell_angle_alpha   77.25539412
_cell_angle_beta   77.25274983
_cell_angle_gamma   61.66164256
_symmetry_Int_Tables_number   1
_chemical_formula_structural   AlH4C4Br3N2
_chemical_formula_sum   'Al2 H8 C8 Br6 N4'
_cell_volume   431.95242078
_cell_formula_units_Z   2
loop_
 _symmetry_equiv_pos_site_id
 _symmetry_equiv_pos_as_xyz
  1  'x, y, z'
loop_
 _atom_site_type_symbol
 _atom_site_label
 _atom_site_symmetry_multiplicity
 _atom_site_fract_x
 _atom_site_fract_y
 _atom_site_fract_z
 _atom_site_occupancy
 _atom_site_hle17_bader_spin_density
 _atom_site_hle17_ddec_charge
 _atom_site_hle17_ddec_spin_density
 _atom_site_hle17_ddec_sum_bond_order
 _atom_site_hle17_magmom
 _atom_site_hse06_10hf_bader_spin_density
 _atom_site_hse06_10hf_ddec_charge
 _atom_site_hse06_10hf_ddec_spin_density
 _atom_site_hse06_10hf_ddec_sum_bond_order
 _atom_site_hse06_10hf_magmom
 _atom_site_hse06_bader_spin_density
 _atom_site_hse06_ddec_charge
 _atom_site_hse06_ddec_spin_density
 _atom_site_hse06_ddec_sum_bond_order
 _atom_site_hse06_magmom
 _atom_site_pbe_bader_spin_density
 _atom_site_pbe_cm5_charge
 _atom_site_pbe_ddec_charge
 _atom_site_pbe_ddec_spin_density
 _atom_site_pbe_ddec_sum_bond_order
 _atom_site_pbe_magmom
Al  Al0  1  0.71041827  0.28959319  0.75000316  1  0  1.065681  0  2.857848  0  0  0.983964  0  3.133685  0  0  1.020514  0  3.10148  0  0  0.144368  0.957454  0  3.15625  0
Al  Al1  1  0.28958222  0.71042379  0.25000014  1  0  1.065746  0  2.857675  0  0  0.984012  0  3.133484  0  0  1.020562  0  3.101281  0  0  0.144458  0.957507  0  3.156009  0
H  H2  1  0.57695443  0.64527427  0.52940349  1  0  0.089961  0  0.977928  0  0  0.092697  0  1.051918  0  0  0.09602  0  1.04927  0  0  0.108639  0.090122  0  1.05422  0
H  H3  1  0.35476985  0.42299604  0.97060607  1  0  0.08997  0  0.978331  0  0  0.092693  0  1.052268  0  0  0.096013  0  1.049619  0  0  0.108571  0.090125  0  1.05456  0
H  H4  1  0.42303515  0.35474979  0.47058260  1  0  0.089765  0  0.9778  0  0  0.092573  0  1.05176  0  0  0.0959  0  1.049107  0  0  0.108531  0.090019  0  1.054043  0
H  H5  1  0.64529972  0.57693324  0.02940620  1  0  0.089921  0  0.978053  0  0  0.092608  0  1.052053  0  0  0.095931  0  1.049402  0  0  0.108565  0.090045  0  1.054337  0
H  H6  1  0.21946575  0.21741562  0.65261953  1  0  0.096414  0  0.969854  0  0  0.096741  0  1.045472  0  0  0.10051  0  1.042237  0  0  0.111001  0.093893  0  1.048082  0
H  H7  1  0.78266021  0.78045828  0.84737907  1  0  0.096347  0  0.969495  0  0  0.096691  0  1.045107  0  0  0.100474  0  1.041856  0  0  0.11106  0.093847  0  1.047711  0
H  H8  1  0.78049329  0.78260671  0.34736201  1  0  0.096265  0  0.969332  0  0  0.096586  0  1.045004  0  0  0.100351  0  1.041775  0  0  0.110955  0.093742  0  1.047618  0
H  H9  1  0.21739760  0.21948679  0.15262766  1  0  0.096325  0  0.969632  0  0  0.096655  0  1.045245  0  0  0.100439  0  1.041994  0  0  0.110991  0.09381  0  1.047857  0
C  C10  1  0.76672133  0.57895671  0.51626400  1  0  0.108701  0  3.623893  0  0  0.074763  0  3.878127  0  0  0.078265  0  3.893146  0  0  0.064068  0.072092  0  3.868715  0
C  C11  1  0.42105945  0.23326656  0.98374558  1  0  0.108388  0  3.623651  0  0  0.074581  0  3.877786  0  0  0.078079  0  3.892817  0  0  0.063987  0.071921  0  3.868334  0
C  C12  1  0.23320548  0.42109888  0.48373172  1  0  0.108893  0  3.62383  0  0  0.074949  0  3.878049  0  0  0.078455  0  3.893071  0  0  0.06427  0.072247  0  3.868602  0
C  C13  1  0.57896616  0.76669426  0.01627238  1  0  0.10861  0  3.623283  0  0  0.074892  0  3.877346  0  0  0.078401  0  3.892359  0  0  0.064082  0.072193  0  3.867905  0
C  C14  1  0.12038475  0.34405075  0.58462742  1  0  0.109597  0  3.614444  0  0  0.075604  0  3.870629  0  0  0.079475  0  3.885031  0  0  0.065951  0.072669  0  3.861592  0
C  C15  1  0.65599360  0.87959157  0.91536958  1  0  0.109887  0  3.613901  0  0  0.075817  0  3.870174  0  0  0.079687  0  3.884552  0  0  0.066056  0.072841  0  3.861226  0
C  C16  1  0.87962437  0.65593989  0.41538642  1  0  0.109894  0  3.61437  0  0  0.075974  0  3.870473  0  0  0.079857  0  3.884873  0  0  0.066146  0.073007  0  3.861449  0
C  C17  1  0.34405561  0.12036231  0.08462871  1  0  0.109978  0  3.614675  0  0  0.075954  0  3.870868  0  0  0.079817  0  3.885256  0  0  0.066134  0.072992  0  3.861844  0
Br  Br18  1  0.36200101  0.63797190  0.75000464  1  0  -0.448476  0  1.13975  0  0  -0.432984  0  1.404644  0  0  -0.444468  0  1.386732  0  0  -0.108541  -0.423936  0  1.417208  0
Br  Br19  1  0.63796200  0.36199954  0.24998672  1  0  -0.448416  0  1.139695  0  0  -0.432948  0  1.404627  0  0  -0.444432  0  1.386713  0  0  -0.108552  -0.423925  0  1.417221  0
Br  Br20  1  0.75039152  0.02369045  0.63247502  1  0  -0.424426  0  1.132797  0  0  -0.399613  0  1.3915  0  0  -0.414076  0  1.376543  0  0  -0.107091  -0.38833  0  1.401992  0
Br  Br21  1  0.97633966  0.24958486  0.86752021  1  0  -0.424412  0  1.132813  0  0  -0.399623  0  1.391605  0  0  -0.414084  0  1.376644  0  0  -0.107069  -0.388342  0  1.402096  0
Br  Br22  1  0.24956113  0.97636688  0.36752498  1  0  -0.424434  0  1.132768  0  0  -0.399579  0  1.391451  0  0  -0.414041  0  1.376491  0  0  -0.107094  -0.388304  0  1.401944  0
Br  Br23  1  0.02364747  0.75047599  0.13247691  1  0  -0.42444  0  1.132765  0  0  -0.399607  0  1.391494  0  0  -0.414066  0  1.376534  0  0  -0.107115  -0.388331  0  1.401982  0
N  N24  1  0.88612852  0.42325216  0.60142437  1  0  -0.288895  0  3.350964  0  0  -0.215763  0  3.576239  0  0  -0.228306  0  3.594966  0  0  -0.260552  -0.207266  0  3.563963  0
N  N25  1  0.57681486  0.11381739  0.89857073  1  0  -0.288905  0  3.350897  0  0  -0.215839  0  3.57627  0  0  -0.228376  0  3.594975  0  0  -0.260607  -0.207352  0  3.564  0
N  N26  1  0.11383826  0.57679467  0.39857014  1  0  -0.289057  0  3.351663  0  0  -0.215988  0  3.576997  0  0  -0.228534  0  3.595722  0  0  -0.260697  -0.207457  0  3.564694  0
N  N27  1  0.42322727  0.88614524  0.10143073  1  0  -0.288885  0  3.3514  0  0  -0.215812  0  3.576717  0  0  -0.228366  0  3.595459  0  0  -0.260513  -0.207281  0  3.5644  0
