# generated using pymatgen
data_CdH4C4(NCl)2
_symmetry_space_group_name_H-M   'P 1'
_cell_length_a   7.11231807
_cell_length_b   7.31880937
_cell_length_c   8.28048642
_cell_angle_alpha   116.21562412
_cell_angle_beta   115.40733870
_cell_angle_gamma   90.00648908
_symmetry_Int_Tables_number   1
_chemical_formula_structural   CdH4C4(NCl)2
_chemical_formula_sum   'Cd2 H8 C8 N4 Cl4'
_cell_volume   339.59277821
_cell_formula_units_Z   2
loop_
 _symmetry_equiv_pos_site_id
 _symmetry_equiv_pos_as_xyz
  1  'x, y, z'
loop_
 _atom_site_type_symbol
 _atom_site_label
 _atom_site_symmetry_multiplicity
 _atom_site_fract_x
 _atom_site_fract_y
 _atom_site_fract_z
 _atom_site_occupancy
 _atom_site_pbe_bader_spin_density
 _atom_site_pbe_cm5_charge
 _atom_site_pbe_ddec_charge
 _atom_site_pbe_ddec_spin_density
 _atom_site_pbe_ddec_sum_bond_order
 _atom_site_pbe_magmom
Cd  Cd0  1  0.99999798  0.99999900  0.50000002  1  0  0.58687  0.686338  0  2.502032  0
Cd  Cd1  1  0.49999804  0.99999944  0.50000034  1  0  0.586637  0.685848  0  2.50279  0
H  H2  1  0.65567065  0.58415690  0.66830112  1  0  0.101787  0.122438  0  1.022331  0
H  H3  1  0.01294770  0.58418856  0.66817422  1  0  0.102002  0.122509  0  1.023715  0
H  H4  1  0.34433043  0.41584245  0.33169773  1  0  0.101789  0.122413  0  1.022365  0
H  H5  1  0.98705493  0.41581081  0.33182399  1  0  0.102034  0.122541  0  1.023746  0
H  H6  1  0.66638310  0.75673306  0.01335936  1  0  0.113407  0.09693  0  1.020663  0
H  H7  1  0.34713283  0.75656257  0.01304119  1  0  0.113438  0.096939  0  1.020271  0
H  H8  1  0.33361487  0.24326630  0.98663836  1  0  0.113406  0.09692  0  1.020727  0
H  H9  1  0.65286707  0.24343835  0.98695906  1  0  0.113438  0.096914  0  1.02029  0
C  C10  1  0.80751652  0.65458567  0.80920690  1  0  -0.057233  -0.052697  0  3.891696  0
C  C11  1  0.00186339  0.65452823  0.80907065  1  0  -0.05709  -0.052157  0  3.892483  0
C  C12  1  0.19248377  0.34541681  0.19079532  1  0  -0.057222  -0.052643  0  3.891605  0
C  C13  1  0.99813691  0.34547425  0.19093156  1  0  -0.057124  -0.052198  0  3.892479  0
C  C14  1  0.81182727  0.74960746  0.99927661  1  0  0.057994  0.071202  0  3.902489  0
C  C15  1  0.18759045  0.74949425  0.99899161  1  0  0.057477  0.070947  0  3.902169  0
C  C16  1  0.18817381  0.25039190  0.00072224  1  0  0.057951  0.071148  0  3.90254  0
C  C17  1  0.81240870  0.25050353  0.00100713  1  0  0.057484  0.071005  0  3.902008  0
N  N18  1  0.99462739  0.83800778  0.17596879  1  0  -0.204679  -0.105499  0  3.48271  0
N  N19  1  0.18166287  0.83800583  0.17583423  1  0  -0.204134  -0.105042  0  3.48177  0
N  N20  1  0.00537290  0.16199471  0.82403221  1  0  -0.204691  -0.105487  0  3.482799  0
N  N21  1  0.81833665  0.16199354  0.82416284  1  0  -0.204105  -0.105059  0  3.481689  0
Cl  Cl22  1  0.31857580  0.82816473  0.63721832  1  0  -0.30481  -0.475815  0  1.270761  0
Cl  Cl23  1  0.31855695  0.30901394  0.63721795  1  0  -0.304904  -0.475841  0  1.270481  0
Cl  Cl24  1  0.68144103  0.69098541  0.36278219  1  0  -0.304905  -0.475833  0  1.27049  0
Cl  Cl25  1  0.68142254  0.17183620  0.36278016  1  0  -0.304819  -0.475822  0  1.270721  0
