# generated using pymatgen
data_ZnSiH2C8S4(NF2)4
_symmetry_space_group_name_H-M   'P 1'
_cell_length_a   7.65511473
_cell_length_b   8.88332298
_cell_length_c   8.88333680
_cell_angle_alpha   90.13070448
_cell_angle_beta   90.88094679
_cell_angle_gamma   90.87898655
_symmetry_Int_Tables_number   1
_chemical_formula_structural   ZnSiH2C8S4(NF2)4
_chemical_formula_sum   'Zn1 Si1 H2 C8 S4 N4 F8'
_cell_volume   603.94788332
_cell_formula_units_Z   1
loop_
 _symmetry_equiv_pos_site_id
 _symmetry_equiv_pos_as_xyz
  1  'x, y, z'
loop_
 _atom_site_type_symbol
 _atom_site_label
 _atom_site_symmetry_multiplicity
 _atom_site_fract_x
 _atom_site_fract_y
 _atom_site_fract_z
 _atom_site_occupancy
 _atom_site_pbe_bader_charge
 _atom_site_pbe_bader_spin_density
 _atom_site_pbe_cm5_charge
 _atom_site_pbe_ddec_charge
 _atom_site_pbe_ddec_spin_density
 _atom_site_pbe_ddec_sum_bond_order
 _atom_site_pbe_magmom
Zn  Zn0  1  0.48806953  0.49891837  0.49891368  1  1.384591  0  0.714731  0.850504  0  2.297677  0
Si  Si1  1  0.98374661  0.51528590  0.51529762  1  3.233319  0  0.247289  1.737187  0  3.920812  0
H  H2  1  0.75593036  0.43069721  0.78085723  1  0.244822  0  0.130405  0.146658  0  1.002305  0
H  H3  1  0.75592366  0.78086258  0.43067030  1  0.245206  0  0.130405  0.146523  0  1.002278  0
C  C4  1  0.37733497  0.53365565  0.15580972  1  1.170721  0  0.237189  0.428206  0  4.101966  0
C  C5  1  0.63125188  0.46097552  0.83065675  1  0.500899  0  0.061268  0.090543  0  3.827092  0
C  C6  1  0.58998509  0.47371102  0.98548401  1  -0.136242  0  -0.010756  -0.053811  0  4.035528  0
C  C7  1  0.41673949  0.52010697  0.00185043  1  -0.107518  0  -0.026691  -0.197644  0  4.124777  0
C  C8  1  0.37733920  0.15581636  0.53365131  1  1.169971  0  0.237186  0.428097  0  4.102009  0
C  C9  1  0.63123818  0.83062951  0.46094031  1  0.500733  0  0.061362  0.090952  0  3.827334  0
C  C10  1  0.58996430  0.98544468  0.47368188  1  -0.136596  0  -0.010861  -0.054037  0  4.034791  0
C  C11  1  0.41671140  0.00184378  0.52007465  1  -0.107189  0  -0.026524  -0.197344  0  4.124187  0
S  S12  1  0.68644158  0.45125356  0.16110460  1  0.695376  0  0.263281  0.340239  0  2.859722  0
S  S13  1  0.31517781  0.54064074  0.83121670  1  0.751557  0  0.267897  0.359548  0  2.976341  0
S  S14  1  0.68644208  0.16109009  0.45125513  1  0.699899  0  0.263181  0.340105  0  2.859248  0
S  S15  1  0.31515731  0.83122444  0.54061326  1  0.754758  0  0.267887  0.359534  0  2.976221  0
N  N16  1  0.50325620  0.49881555  0.25154674  1  -1.169925  0  -0.322556  -0.413197  0  3.381435  0
N  N17  1  0.49660881  0.49318312  0.74026187  1  -1.172536  0  -0.314747  -0.300732  0  3.416564  0
N  N18  1  0.50327643  0.25154256  0.49884668  1  -1.169538  0  -0.322471  -0.413077  0  3.381513  0
N  N19  1  0.49659598  0.74026093  0.49315006  1  -1.17188  0  -0.314791  -0.300862  0  3.416751  0
F  F20  1  0.21807214  0.53533168  0.53535467  1  -0.815501  0  -0.207956  -0.499376  0  1.347181  0
F  F21  1  0.75393880  0.48881991  0.48882089  1  -0.823077  0  -0.211446  -0.495256  0  1.364273  0
F  F22  1  0.97719489  0.38394050  0.65312554  1  -0.830078  0  -0.245705  -0.552259  0  1.173903  0
F  F23  1  0.97722251  0.65311999  0.38394571  1  -0.830116  0  -0.245748  -0.552274  0  1.173831  0
F  F24  1  0.95582105  0.64884612  0.64884325  1  -0.83897  0  -0.263979  -0.560901  0  1.09356  0
F  F25  1  0.01566003  0.38301595  0.38306499  1  -0.830492  0  -0.261395  -0.562219  0  1.142026  0
F  F26  1  0.22526717  0.58128350  0.20500200  1  -0.606117  0  -0.048201  -0.082534  0  1.444053  0
F  F27  1  0.22526193  0.20501102  0.58128392  1  -0.606076  0  -0.048255  -0.082572  0  1.443982  0
