# generated using pymatgen
data_CoH4(CO3)2
_symmetry_space_group_name_H-M   'P 1'
_cell_length_a   6.02052748
_cell_length_b   7.16370022
_cell_length_c   11.82554353
_cell_angle_alpha   62.81823355
_cell_angle_beta   75.69740695
_cell_angle_gamma   52.76422183
_symmetry_Int_Tables_number   1
_chemical_formula_structural   CoH4(CO3)2
_chemical_formula_sum   'Co3 H12 C6 O18'
_cell_volume   360.90377642
_cell_formula_units_Z   3
loop_
 _symmetry_equiv_pos_site_id
 _symmetry_equiv_pos_as_xyz
  1  'x, y, z'
loop_
 _atom_site_type_symbol
 _atom_site_label
 _atom_site_symmetry_multiplicity
 _atom_site_fract_x
 _atom_site_fract_y
 _atom_site_fract_z
 _atom_site_occupancy
 _atom_site_hle17_ddec_charge
 _atom_site_hle17_ddec_spin_density
 _atom_site_hle17_ddec_sum_bond_order
 _atom_site_hle17_magmom
 _atom_site_hse06_10hf_ddec_charge
 _atom_site_hse06_10hf_ddec_spin_density
 _atom_site_hse06_10hf_ddec_sum_bond_order
 _atom_site_hse06_10hf_magmom
 _atom_site_hse06_ddec_charge
 _atom_site_hse06_ddec_spin_density
 _atom_site_hse06_ddec_sum_bond_order
 _atom_site_hse06_magmom
 _atom_site_pbe_cm5_charge
 _atom_site_pbe_ddec_charge
 _atom_site_pbe_ddec_spin_density
 _atom_site_pbe_ddec_sum_bond_order
 _atom_site_pbe_magmom
Co  Co0  1  0.50001484  0.16665579  0.66664592  1  1.070281  -2.929629  1.8347  -2.606  1.04145  -2.890138  2.218076  -2.672  1.110988  -2.931728  2.15526  -2.737  0.636891  0.984584  -2.848748  2.268413  -2.609
Co  Co1  1  0.49981884  0.83365217  0.33348574  1  1.072043  2.872485  1.831805  2.61  1.043342  2.864481  2.214645  2.676  1.112423  2.901134  2.152002  2.739  0.638014  0.987588  2.829572  2.264115  2.617
Co  Co2  1  0.50017140  0.49968997  0.99988842  1  1.071872  2.872408  1.830782  2.61  1.043225  2.864543  2.213318  2.676  1.112384  2.901231  2.150659  2.739  0.637862  0.987342  2.829573  2.262888  2.617
H  H3  1  0.19197456  0.07840334  0.85608126  1  0.435399  0.00014  0.845367  0.001  0.407114  -0.000189  0.916041  0.0  0.417628  -0.000107  0.900849  0.0  0.304629  0.399551  -0.000266  0.926923  0.0
H  H4  1  0.80820806  0.92124894  0.14414505  1  0.435186  -0.000403  0.845157  -0.001  0.406934  -6.2e-05  0.916033  0.0  0.417412  -0.000198  0.900898  0.0  0.304602  0.399411  8.4e-05  0.92685  0.001
H  H5  1  0.19041022  0.98714891  0.75982691  1  0.435987  0.000209  0.842479  0.001  0.407326  -0.000108  0.915361  0.0  0.417742  -8e-06  0.900311  0.0  0.304859  0.399872  -0.000207  0.926068  0.0
H  H6  1  0.80912256  0.01345899  0.24008409  1  0.436014  -0.000437  0.843056  -0.001  0.407794  -9.8e-05  0.915069  0.0  0.418194  -0.000232  0.900025  0.0  0.304733  0.400324  5.1e-05  0.92583  0.0
H  H7  1  0.80811894  0.25484120  0.47725413  1  0.435884  0.000137  0.844755  0.001  0.407674  -0.000192  0.915229  0.0  0.418188  -0.000109  0.900032  0.0  0.304909  0.400112  -0.00027  0.926112  0.0
H  H8  1  0.19167850  0.74532775  0.52270291  1  0.435908  -0.000157  0.844752  -0.001  0.407829  0.000174  0.914942  0.0  0.418347  9e-05  0.899749  0.0  0.305064  0.400256  0.000246  0.925834  0.0
H  H9  1  0.80993114  0.34553466  0.57374358  1  0.436173  0.000216  0.841967  0.001  0.407504  -0.000104  0.914989  0.0  0.417917  -4e-06  0.899943  0.0  0.305033  0.40005  -0.000202  0.925696  0.0
H  H10  1  0.18999953  0.65464821  0.42618158  1  0.436624  -0.000213  0.841378  -0.001  0.407867  0.000109  0.91449  0.0  0.418275  1.1e-05  0.899453  0.0  0.305132  0.400421  0.000202  0.925189  0.0
H  H11  1  0.80964543  0.67915040  0.90693399  1  0.436258  -0.00021  0.842162  -0.001  0.407543  0.000111  0.915057  0.0  0.417959  1.3e-05  0.900009  0.0  0.305076  0.400098  0.000204  0.92575  0.0
H  H12  1  0.19062393  0.32030374  0.09314615  1  0.436445  -0.000437  0.842066  -0.001  0.407653  -9.8e-05  0.915017  0.0  0.418062  -0.000232  0.89997  0.0  0.304895  0.400224  5e-05  0.925697  0.0
H  H13  1  0.80823809  0.58809926  0.81057519  1  0.436047  -0.000157  0.844516  -0.001  0.407668  0.000174  0.915228  0.0  0.4182  9e-05  0.900012  0.0  0.30498  0.400087  0.000245  0.926132  0.0
H  H14  1  0.19200327  0.41183930  0.18929862  1  0.435461  -0.000401  0.844904  -0.001  0.407135  -6e-05  0.91574  0.0  0.417621  -0.000196  0.9006  0.0  0.304658  0.399597  8.6e-05  0.926578  0.001
C  C15  1  0.60205752  0.19357407  0.87870345  1  0.551553  -0.000141  3.869106  0.0  0.506812  -5.5e-05  4.170572  0.0  0.539621  -4.9e-05  4.16241  0.0  0.214201  0.482226  -0.0001  4.176969  0.0
C  C16  1  0.39800645  0.80641113  0.12115364  1  0.552836  -0.007898  3.867637  -0.012  0.507937  -0.001782  4.169337  -0.004  0.540518  -0.001315  4.161302  -0.002  0.214646  0.483853  -0.003169  4.175403  -0.006
C  C17  1  0.39802551  0.47277364  0.78780132  1  0.552796  3.7e-05  3.86875  0.0  0.50838  9.8e-05  4.169818  0.0  0.541189  6.3e-05  4.161629  0.0  0.215144  0.483802  0.000131  4.176251  0.0
C  C18  1  0.60199440  0.52705072  0.21218348  1  0.553819  -0.007912  3.866681  -0.012  0.508748  -0.001785  4.168593  -0.004  0.541337  -0.001317  4.160556  -0.002  0.215249  0.484655  -0.003176  4.174659  -0.006
C  C19  1  0.60189550  0.86054950  0.54551976  1  0.552305  2.1e-05  3.869399  0.0  0.507812  9.4e-05  4.170621  0.0  0.540635  6.2e-05  4.162431  0.0  0.214803  0.483217  0.000124  4.177068  0.0
C  C20  1  0.39798351  0.13965557  0.45463992  1  0.552323  -0.000147  3.868538  0.0  0.507624  -5.9e-05  4.169897  0.0  0.540446  -5e-05  4.161708  0.0  0.214413  0.483018  -0.00011  4.176332  0.0
O  O21  1  0.67655477  0.02068048  0.84396379  1  -0.575997  -0.035237  2.136997  -0.06  -0.535639  -0.026404  2.395313  -0.042  -0.566871  -0.021853  2.384492  -0.035  -0.287795  -0.511995  -0.03074  2.402719  -0.049
O  O22  1  0.32359851  0.97935689  0.15584534  1  -0.577956  0.035782  2.136027  0.062  -0.537282  0.027644  2.39434  0.045  -0.568082  0.022304  2.383495  0.036  -0.288937  -0.514428  0.032587  2.401769  0.053
O  O23  1  0.32148496  0.50685876  0.68545721  1  -0.576366  -0.035098  2.146025  -0.059  -0.535418  -0.026041  2.403554  -0.042  -0.56681  -0.021571  2.392799  -0.034  -0.287704  -0.511647  -0.03032  2.410924  -0.048
O  O24  1  0.67852522  0.49299606  0.31454715  1  -0.577931  0.035856  2.143611  0.062  -0.536335  0.027626  2.401107  0.044  -0.567285  0.022424  2.390346  0.036  -0.288504  -0.513364  0.032459  2.4085  0.052
O  O25  1  0.67857560  0.15954331  0.98105395  1  -0.575652  0.034573  2.14537  0.06  -0.534871  0.025895  2.403131  0.042  -0.566316  0.02125  2.392417  0.035  -0.287337  -0.511119  0.030522  2.410482  0.05
O  O26  1  0.32147135  0.84048061  0.01878708  1  -0.57731  0.035857  2.143795  0.062  -0.535844  0.027623  2.401185  0.044  -0.56681  0.022419  2.390442  0.036  -0.288076  -0.512851  0.032458  2.408561  0.052
O  O27  1  0.32379260  0.64564930  0.82250969  1  -0.576618  0.034707  2.136941  0.06  -0.536536  0.026234  2.395292  0.042  -0.567797  0.021616  2.384525  0.035  -0.288269  -0.512992  0.030742  2.402718  0.05
O  O28  1  0.67634642  0.35403803  0.17754089  1  -0.57792  0.035792  2.135686  0.062  -0.537449  0.027643  2.394276  0.045  -0.568269  0.022301  2.38343  0.036  -0.288796  -0.51455  0.032585  2.401712  0.053
O  O29  1  0.67850514  0.82648341  0.64784392  1  -0.576486  -0.035145  2.146466  -0.059  -0.535256  -0.026067  2.403897  -0.042  -0.566672  -0.021591  2.393156  -0.034  -0.287686  -0.51147  -0.030355  2.411255  -0.049
O  O30  1  0.32148123  0.17362625  0.35229116  1  -0.576206  0.034636  2.145988  0.06  -0.535238  0.025936  2.403643  0.042  -0.5667  0.021286  2.392917  0.035  -0.287268  -0.511476  0.030567  2.411005  0.05
O  O31  1  0.32360179  0.31259144  0.48931845  1  -0.57624  -0.035276  2.136031  -0.06  -0.535973  -0.026425  2.394502  -0.042  -0.567198  -0.021867  2.38366  -0.035  -0.288098  -0.512335  -0.03077  2.401935  -0.049
O  O32  1  0.67609085  0.68768582  0.51081395  1  -0.576062  0.034776  2.136503  0.06  -0.536197  0.026282  2.395165  0.042  -0.567408  0.021654  2.384289  0.035  -0.288055  -0.51269  0.030799  2.402664  0.05
O  O33  1  0.17334770  0.13049598  0.76374570  1  -0.806409  -0.032511  1.892134  -0.052  -0.771867  -0.028518  2.109661  -0.042  -0.797777  -0.023299  2.076295  -0.034  -0.567219  -0.751152  -0.03354  2.132998  -0.049
O  O34  1  0.82636165  0.86979902  0.23640149  1  -0.806392  0.031269  1.893072  0.052  -0.772363  0.027671  2.109526  0.042  -0.798245  0.022451  2.076235  0.034  -0.566964  -0.751759  0.03272  2.132792  0.049
O  O35  1  0.82680915  0.20245484  0.56960981  1  -0.806767  -0.03253  1.892113  -0.052  -0.772272  -0.028538  2.109662  -0.042  -0.798183  -0.023317  2.076269  -0.034  -0.567403  -0.751558  -0.033558  2.133022  -0.049
O  O36  1  0.17321184  0.79766167  0.43036061  1  -0.807011  0.031885  1.892363  0.052  -0.772439  0.028364  2.109743  0.042  -0.798397  0.023105  2.076341  0.034  -0.567318  -0.751782  0.033411  2.133071  0.05
O  O37  1  0.82664630  0.53591244  0.90291485  1  -0.806999  0.031868  1.892285  0.052  -0.772245  0.028339  2.109807  0.042  -0.798204  0.023082  2.0764  0.034  -0.567337  -0.751577  0.033383  2.133138  0.049
O  O38  1  0.17365571  0.46368811  0.09698911  1  -0.806894  0.031287  1.892607  0.052  -0.772146  0.027682  2.110524  0.042  -0.798063  0.02246  2.077166  0.034  -0.567028  -0.751543  0.032729  2.133822  0.049
