# generated using pymatgen
data_HgH5C6(BrN)2
_symmetry_space_group_name_H-M   'P 1'
_cell_length_a   4.17427495
_cell_length_b   9.21684909
_cell_length_c   11.57509645
_cell_angle_alpha   88.08466737
_cell_angle_beta   88.91592373
_cell_angle_gamma   86.05565451
_symmetry_Int_Tables_number   1
_chemical_formula_structural   HgH5C6(BrN)2
_chemical_formula_sum   'Hg2 H10 C12 Br4 N4'
_cell_volume   443.97158859
_cell_formula_units_Z   2
loop_
 _symmetry_equiv_pos_site_id
 _symmetry_equiv_pos_as_xyz
  1  'x, y, z'
loop_
 _atom_site_type_symbol
 _atom_site_label
 _atom_site_symmetry_multiplicity
 _atom_site_fract_x
 _atom_site_fract_y
 _atom_site_fract_z
 _atom_site_occupancy
 _atom_site_hle17_bader_spin_density
 _atom_site_hle17_ddec_charge
 _atom_site_hle17_ddec_spin_density
 _atom_site_hle17_ddec_sum_bond_order
 _atom_site_hle17_magmom
 _atom_site_hse06_10hf_bader_spin_density
 _atom_site_hse06_10hf_ddec_charge
 _atom_site_hse06_10hf_ddec_spin_density
 _atom_site_hse06_10hf_ddec_sum_bond_order
 _atom_site_hse06_10hf_magmom
 _atom_site_hse06_bader_spin_density
 _atom_site_hse06_ddec_charge
 _atom_site_hse06_ddec_spin_density
 _atom_site_hse06_ddec_sum_bond_order
 _atom_site_hse06_magmom
 _atom_site_pbe_bader_spin_density
 _atom_site_pbe_cm5_charge
 _atom_site_pbe_ddec_charge
 _atom_site_pbe_ddec_spin_density
 _atom_site_pbe_ddec_sum_bond_order
 _atom_site_pbe_magmom
Hg  Hg0  1  0.10483927  0.13516889  0.22018541  1  0  0.641213  0  2.109966  0  0  0.487222  0  2.615695  0  0  0.537915  0  2.585109  0  0  0.441476  0.452915  0  2.63545  0
Hg  Hg1  1  0.89515717  0.86483002  0.77981353  1  0  0.641201  0  2.110014  0  0  0.487176  0  2.615747  0  0  0.537874  0  2.585163  0  0  0.441502  0.452871  0  2.635497  0
H  H2  1  0.85339221  0.91064740  0.40788784  1  0  0.079903  0  0.973848  0  0  0.082752  0  1.051724  0  0  0.085852  0  1.048303  0  0  0.094971  0.080155  0  1.05474  0
H  H3  1  0.14662498  0.08935700  0.59211333  1  0  0.079853  0  0.973794  0  0  0.082689  0  1.051704  0  0  0.085788  0  1.048281  0  0  0.094923  0.080092  0  1.05472  0
H  H4  1  0.90618140  0.64908554  0.46764639  1  0  0.105356  0  0.956545  0  0  0.116472  0  1.015166  0  0  0.119482  0  1.014222  0  0  0.100074  0.114107  0  1.01634  0
H  H5  1  0.09383770  0.35092215  0.53235637  1  0  0.105304  0  0.956549  0  0  0.11648  0  1.015126  0  0  0.119483  0  1.014181  0  0  0.10009  0.114116  0  1.016299  0
H  H6  1  0.23940466  0.47282267  0.34058260  1  0  0.094927  0  0.963586  0  0  0.101339  0  1.031972  0  0  0.104574  0  1.028914  0  0  0.095644  0.098944  0  1.034098  0
H  H7  1  0.76059895  0.52717741  0.65942488  1  0  0.094909  0  0.963619  0  0  0.101306  0  1.032023  0  0  0.104542  0  1.028967  0  0  0.095625  0.098903  0  1.034166  0
H  H8  1  0.49335594  0.57181375  0.16098741  1  0  0.11747  0  0.967099  0  0  0.122875  0  1.036196  0  0  0.126912  0  1.033725  0  0  0.095642  0.119876  0  1.038268  0
H  H9  1  0.50663629  0.42818191  0.83901513  1  0  0.117517  0  0.967011  0  0  0.122916  0  1.036119  0  0  0.126955  0  1.033646  0  0  0.095636  0.11992  0  1.038191  0
H  H10  1  0.59833594  0.76818202  0.03106531  1  0  0.085306  0  0.989365  0  0  0.090958  0  1.063851  0  0  0.094938  0  1.05855  0  0  0.100346  0.087894  0  1.068313  0
H  H11  1  0.40165192  0.23181033  0.96893220  1  0  0.08531  0  0.989439  0  0  0.090988  0  1.063904  0  0  0.094962  0  1.058602  0  0  0.100362  0.087928  0  1.068362  0
C  C12  1  0.99413239  0.83213028  0.35553190  1  0  0.138722  0  3.677017  0  0  0.1034  0  3.931141  0  0  0.111025  0  3.949377  0  0  0.046289  0.097985  0  3.919917  0
C  C13  1  0.00587075  0.16787192  0.64446860  1  0  0.138796  0  3.676795  0  0  0.103465  0  3.930918  0  0  0.111089  0  3.949164  0  0  0.04634  0.098053  0  3.919687  0
C  C14  1  0.02615241  0.68448726  0.38834713  1  0  -0.092934  0  3.696909  0  0  -0.10407  0  3.940534  0  0  -0.11012  0  3.961296  0  0  -0.077947  -0.100508  0  3.927656  0
C  C15  1  0.97386714  0.31551713  0.61165228  1  0  -0.092889  0  3.69659  0  0  -0.104101  0  3.940257  0  0  -0.110138  0  3.961001  0  0  -0.077985  -0.10054  0  3.927379  0
C  C16  1  0.20728970  0.58883252  0.31857402  1  0  0.004389  0  3.69585  0  0  -0.009867  0  3.938518  0  0  -0.007021  0  3.956353  0  0  -0.063413  -0.011719  0  3.926778  0
C  C17  1  0.79272064  0.41116969  0.68142728  1  0  0.004418  0  3.695571  0  0  -0.009828  0  3.938287  0  0  -0.006977  0  3.956111  0  0  -0.063398  -0.011687  0  3.92656  0
C  C18  1  0.35059181  0.64373047  0.21800487  1  0  -0.111269  0  3.66048  0  0  -0.130908  0  3.904258  0  0  -0.136664  0  3.925185  0  0  -0.070257  -0.127605  0  3.890732  0
C  C19  1  0.64941698  0.35626630  0.78199576  1  0  -0.111316  0  3.660406  0  0  -0.130958  0  3.904192  0  0  -0.136714  0  3.925125  0  0  -0.070219  -0.127659  0  3.890661  0
C  C20  1  0.30810510  0.79242557  0.18955560  1  0  0.18833  0  3.767475  0  0  0.188101  0  4.006129  0  0  0.192145  0  4.028928  0  0  0.110384  0.185965  0  3.990832  0
C  C21  1  0.69189425  0.20757008  0.81044342  1  0  0.18828  0  3.767693  0  0  0.188052  0  4.006336  0  0  0.192089  0  4.029146  0  0  0.110339  0.185922  0  3.991035  0
C  C22  1  0.45642397  0.84719090  0.08321763  1  0  0.081399  0  3.645629  0  0  0.040819  0  3.907595  0  0  0.05094  0  3.917919  0  0  0.071129  0.032239  0  3.901929  0
C  C23  1  0.54356700  0.15281235  0.91678122  1  0  0.081466  0  3.645506  0  0  0.040819  0  3.907533  0  0  0.050949  0  3.917859  0  0  0.071085  0.032235  0  3.901868  0
Br  Br24  1  0.55071762  0.18211469  0.38086275  1  0  -0.456684  0  1.092254  0  0  -0.399936  0  1.418947  0  0  -0.422093  0  1.399481  0  0  -0.234401  -0.382792  0  1.431968  0
Br  Br25  1  0.44926732  0.81789616  0.61913418  1  0  -0.456688  0  1.092265  0  0  -0.399937  0  1.418961  0  0  -0.422097  0  1.399501  0  0  -0.234423  -0.382792  0  1.431979  0
Br  Br26  1  0.93547558  0.35604774  0.09308311  1  0  -0.390257  0  1.158911  0  0  -0.336524  0  1.494142  0  0  -0.357722  0  1.476589  0  0  -0.200656  -0.320871  0  1.506158  0
Br  Br27  1  0.06449343  0.64394239  0.90691291  1  0  -0.390272  0  1.158954  0  0  -0.336507  0  1.494149  0  0  -0.35771  0  1.476604  0  0  -0.200676  -0.320853  0  1.506164  0
N  N28  1  0.12986686  0.88431803  0.25862267  1  0  -0.297368  0  3.259155  0  0  -0.212785  0  3.508296  0  0  -0.234961  0  3.53297  0  0  -0.299732  -0.197961  0  3.491319  0
N  N29  1  0.87014878  0.11568092  0.74137782  1  0  -0.297378  0  3.259253  0  0  -0.212712  0  3.508289  0  0  -0.234888  0  3.532966  0  0  -0.299709  -0.19789  0  3.491314  0
N  N30  1  0.42494240  0.98348276  0.05198816  1  0  -0.188552  0  3.143851  0  0  -0.139909  0  3.431656  0  0  -0.155267  0  3.452873  0  0  -0.209594  -0.128684  0  3.416735  0
N  N31  1  0.57504072  0.01650960  0.94801198  1  0  -0.188461  0  3.143504  0  0  -0.139785  0  3.431328  0  0  -0.155143  0  3.45254  0  0  -0.209445  -0.128558  0  3.416406  0
