# generated using pymatgen
data_LaH10C4Cl3O2
_symmetry_space_group_name_H-M   'P 1'
_cell_length_a   6.65630254
_cell_length_b   7.40529186
_cell_length_c   10.11168257
_cell_angle_alpha   84.43450651
_cell_angle_beta   76.91403009
_cell_angle_gamma   75.65810410
_symmetry_Int_Tables_number   1
_chemical_formula_structural   LaH10C4Cl3O2
_chemical_formula_sum   'La2 H20 C8 Cl6 O4'
_cell_volume   469.90830455
_cell_formula_units_Z   2
loop_
 _symmetry_equiv_pos_site_id
 _symmetry_equiv_pos_as_xyz
  1  'x, y, z'
loop_
 _atom_site_type_symbol
 _atom_site_label
 _atom_site_symmetry_multiplicity
 _atom_site_fract_x
 _atom_site_fract_y
 _atom_site_fract_z
 _atom_site_occupancy
 _atom_site_hle17_bader_spin_density
 _atom_site_hle17_ddec_charge
 _atom_site_hle17_ddec_spin_density
 _atom_site_hle17_ddec_sum_bond_order
 _atom_site_hle17_magmom
 _atom_site_hse06_10hf_bader_spin_density
 _atom_site_hse06_10hf_ddec_charge
 _atom_site_hse06_10hf_ddec_spin_density
 _atom_site_hse06_10hf_ddec_sum_bond_order
 _atom_site_hse06_10hf_magmom
 _atom_site_hse06_bader_spin_density
 _atom_site_hse06_ddec_charge
 _atom_site_hse06_ddec_spin_density
 _atom_site_hse06_ddec_sum_bond_order
 _atom_site_hse06_magmom
 _atom_site_pbe_bader_spin_density
 _atom_site_pbe_cm5_charge
 _atom_site_pbe_ddec_charge
 _atom_site_pbe_ddec_spin_density
 _atom_site_pbe_ddec_sum_bond_order
 _atom_site_pbe_magmom
La  La0  1  0.72025447  0.70793190  0.93955797  1  0  1.837316  0  1.982437  0  0  1.758739  0  2.483333  0  0  1.849576  0  2.401211  0  0  0.949268  1.691563  0  2.538486  0
La  La1  1  0.27975684  0.29206368  0.06044047  1  0  1.837646  0  1.982178  0  0  1.758767  0  2.483362  0  0  1.849605  0  2.401233  0  0  0.949274  1.691587  0  2.538533  0
H  H2  1  0.03851764  0.78433414  0.60365240  1  0  0.064584  0  0.927341  0  0  0.081493  0  0.986868  0  0  0.081889  0  0.986301  0  0  0.104307  0.080947  0  0.987706  0
H  H3  1  0.96148637  0.21565988  0.39633934  1  0  0.064663  0  0.927198  0  0  0.081511  0  0.986842  0  0  0.081952  0  0.986223  0  0  0.104308  0.080963  0  0.987684  0
H  H4  1  0.80543358  0.96754760  0.60293358  1  0  0.051457  0  0.927515  0  0  0.064966  0  0.993566  0  0  0.065656  0  0.992751  0  0  0.098154  0.064449  0  0.994361  0
H  H5  1  0.19457350  0.03245224  0.39707109  1  0  0.051328  0  0.927619  0  0  0.064964  0  0.993569  0  0  0.065652  0  0.992762  0  0  0.098145  0.064448  0  0.994365  0
H  H6  1  0.88591320  0.87574289  0.36698541  1  0  0.085151  0  0.951876  0  0  0.103499  0  1.013113  0  0  0.104428  0  1.013206  0  0  0.092728  0.10261  0  1.01323  0
H  H7  1  0.11407813  0.12426373  0.63301515  1  0  0.085163  0  0.951938  0  0  0.103512  0  1.013158  0  0  0.104443  0  1.01325  0  0  0.09274  0.102623  0  1.013274  0
H  H8  1  0.97894846  0.63795303  0.41320809  1  0  0.08579  0  0.941118  0  0  0.102437  0  1.0016  0  0  0.103627  0  1.001795  0  0  0.093456  0.101362  0  1.001773  0
H  H9  1  0.02102861  0.36204365  0.58679144  1  0  0.085767  0  0.94116  0  0  0.102491  0  1.001527  0  0  0.103683  0  1.001717  0  0  0.093474  0.101415  0  1.0017  0
H  H10  1  0.52035766  0.86780069  0.46721048  1  0  0.069381  0  0.959976  0  0  0.087963  0  1.020066  0  0  0.08862  0  1.020627  0  0  0.087627  0.087323  0  1.019947  0
H  H11  1  0.47963788  0.13221324  0.53280866  1  0  0.069459  0  0.959711  0  0  0.087976  0  1.019873  0  0  0.088632  0  1.02043  0  0  0.087593  0.08733  0  1.019762  0
H  H12  1  0.61980447  0.64362195  0.39975190  1  0  0.091199  0  0.958431  0  0  0.109701  0  1.018104  0  0  0.11076  0  1.018337  0  0  0.091213  0.108881  0  1.017826  0
H  H13  1  0.38015804  0.35639983  0.60025081  1  0  0.091177  0  0.958459  0  0  0.109634  0  1.018155  0  0  0.110689  0  1.018389  0  0  0.091203  0.108809  0  1.017881  0
H  H14  1  0.64812322  0.49623616  0.62146669  1  0  0.05675  0  0.941291  0  0  0.070769  0  1.004222  0  0  0.071654  0  1.003138  0  0  0.094801  0.070141  0  1.005137  0
H  H15  1  0.35186006  0.50378295  0.37853212  1  0  0.056747  0  0.941146  0  0  0.07077  0  1.00409  0  0  0.071655  0  1.003007  0  0  0.094798  0.07014  0  1.005004  0
H  H16  1  0.44619873  0.69653884  0.67909697  1  0  0.057577  0  0.951929  0  0  0.067832  0  1.023224  0  0  0.068932  0  1.021714  0  0  0.091903  0.066808  0  1.024729  0
H  H17  1  0.55380528  0.30346662  0.32091167  1  0  0.057584  0  0.951797  0  0  0.067816  0  1.023118  0  0  0.068908  0  1.021607  0  0  0.091905  0.066793  0  1.024623  0
H  H18  1  0.09028102  0.93629040  0.86076702  1  0  0.425935  0  0.866522  0  0  0.399306  0  0.92797  0  0  0.410678  0  0.911385  0  0  0.286391  0.390852  0  0.940343  0
H  H19  1  0.90975991  0.06369834  0.13922357  1  0  0.426068  0  0.866484  0  0  0.399454  0  0.927807  0  0  0.410824  0  0.911219  0  0  0.286474  0.391001  0  0.94018  0
H  H20  1  0.86666071  0.07764119  0.86873065  1  0  0.419737  0  0.883477  0  0  0.393785  0  0.941523  0  0  0.404909  0  0.925472  0  0  0.277865  0.385683  0  0.95323  0
H  H21  1  0.13336522  0.92234598  0.13125736  1  0  0.419839  0  0.883346  0  0  0.39387  0  0.941422  0  0  0.404993  0  0.925371  0  0  0.277909  0.385769  0  0.95313  0
C  C22  1  0.87752871  0.81896727  0.58414804  1  0  0.098931  0  3.587979  0  0  0.040066  0  3.861948  0  0  0.048045  0  3.8684  0  0  -0.069135  0.034521  0  3.85752  0
C  C23  1  0.12246839  0.18104079  0.41585155  1  0  0.098969  0  3.588191  0  0  0.039979  0  3.862318  0  0  0.047926  0  3.868783  0  0  -0.069186  0.034434  0  3.857891  0
C  C24  1  0.86134219  0.76662779  0.44611115  1  0  -0.145872  0  3.67087  0  0  -0.186697  0  3.930645  0  0  -0.188412  0  3.942559  0  0  -0.171186  -0.185246  0  3.922347  0
C  C25  1  0.13863297  0.23337586  0.55388812  1  0  -0.146048  0  3.671047  0  0  -0.186839  0  3.930711  0  0  -0.188563  0  3.942638  0  0  -0.171249  -0.185386  0  3.922411  0
C  C26  1  0.63637003  0.73491019  0.47359244  1  0  -0.142867  0  3.668825  0  0  -0.184015  0  3.925461  0  0  -0.185752  0  3.93744  0  0  -0.172521  -0.182609  0  3.916943  0
C  C27  1  0.36362168  0.26510073  0.52641466  1  0  -0.142803  0  3.668389  0  0  -0.183853  0  3.924923  0  0  -0.185577  0  3.936882  0  0  -0.17247  -0.182446  0  3.916403  0
C  C28  1  0.60669062  0.64935854  0.61774172  1  0  0.094007  0  3.564734  0  0  0.038589  0  3.832464  0  0  0.046573  0  3.83799  0  0  -0.074234  0.032982  0  3.828729  0
C  C29  1  0.39329723  0.35064388  0.38226069  1  0  0.093958  0  3.564369  0  0  0.038584  0  3.832116  0  0  0.046574  0  3.837629  0  0  -0.074167  0.032988  0  3.828376  0
Cl  Cl30  1  0.60603100  0.99048726  0.14754618  1  0  -0.631047  0  0.91345  0  0  -0.597767  0  1.175131  0  0  -0.624081  0  1.154371  0  0  -0.278829  -0.577719  0  1.188724  0
Cl  Cl31  1  0.39397414  0.00950267  0.85245264  1  0  -0.631005  0  0.913526  0  0  -0.597731  0  1.175213  0  0  -0.624038  0  1.15445  0  0  -0.278794  -0.577683  0  1.188804  0
Cl  Cl32  1  0.67341906  0.34705570  0.88504258  1  0  -0.648214  0  1.020729  0  0  -0.62281  0  1.298563  0  0  -0.650526  0  1.278854  0  0  -0.274165  -0.602233  0  1.311654  0
Cl  Cl33  1  0.32659802  0.65293005  0.11494984  1  0  -0.648255  0  1.020825  0  0  -0.622783  0  1.29859  0  0  -0.650507  0  1.278895  0  0  -0.274154  -0.602206  0  1.311686  0
Cl  Cl34  1  0.85471207  0.48771808  0.16410161  1  0  -0.616764  0  0.95889  0  0  -0.60192  0  1.244408  0  0  -0.630293  0  1.225316  0  0  -0.300504  -0.58059  0  1.256644  0
Cl  Cl35  1  0.14530576  0.51227064  0.83590134  1  0  -0.616764  0  0.958902  0  0  -0.601944  0  1.24449  0  0  -0.630319  0  1.225396  0  0  -0.300517  -0.580614  0  1.256725  0
O  O36  1  0.75583194  0.70748318  0.68211423  1  0  -0.393655  0  2.281701  0  0  -0.314147  0  2.537796  0  0  -0.33902  0  2.542721  0  0  -0.294662  -0.29646  0  2.533739  0
O  O37  1  0.24416860  0.29251230  0.31788386  1  0  -0.393544  0  2.28169  0  0  -0.314106  0  2.537885  0  0  -0.338978  0  2.542826  0  0  -0.294645  -0.296416  0  2.53383  0
O  O38  1  0.94052524  0.94411174  0.85875775  1  0  -0.859555  0  1.929702  0  0  -0.81181  0  2.113685  0  0  -0.837293  0  2.081681  0  0  -0.632512  -0.793285  0  2.136601  0
O  O39  1  0.05948568  0.05587963  0.14124010  1  0  -0.859789  0  1.929606  0  0  -0.812053  0  2.113459  0  0  -0.837529  0  2.081461  0  0  -0.632608  -0.793528  0  2.136378  0
