# generated using pymatgen
data_UH8(C7O3)2
_symmetry_space_group_name_H-M   'P 1'
_cell_length_a   5.27955703
_cell_length_b   8.52322126
_cell_length_c   8.52317556
_cell_angle_alpha   117.24635329
_cell_angle_beta   97.98755913
_cell_angle_gamma   97.98732993
_symmetry_Int_Tables_number   1
_chemical_formula_structural   UH8(C7O3)2
_chemical_formula_sum   'U1 H8 C14 O6'
_cell_volume   328.61095595
_cell_formula_units_Z   1
loop_
 _symmetry_equiv_pos_site_id
 _symmetry_equiv_pos_as_xyz
  1  'x, y, z'
loop_
 _atom_site_type_symbol
 _atom_site_label
 _atom_site_symmetry_multiplicity
 _atom_site_fract_x
 _atom_site_fract_y
 _atom_site_fract_z
 _atom_site_occupancy
 _atom_site_hle17_bader_spin_density
 _atom_site_hle17_ddec_charge
 _atom_site_hle17_ddec_spin_density
 _atom_site_hle17_ddec_sum_bond_order
 _atom_site_hle17_magmom
 _atom_site_hse06_10hf_bader_spin_density
 _atom_site_hse06_10hf_ddec_charge
 _atom_site_hse06_10hf_ddec_spin_density
 _atom_site_hse06_10hf_ddec_sum_bond_order
 _atom_site_hse06_10hf_magmom
 _atom_site_hse06_bader_spin_density
 _atom_site_hse06_ddec_charge
 _atom_site_hse06_ddec_spin_density
 _atom_site_hse06_ddec_sum_bond_order
 _atom_site_hse06_magmom
 _atom_site_pbe_bader_spin_density
 _atom_site_pbe_cm5_charge
 _atom_site_pbe_ddec_charge
 _atom_site_pbe_ddec_spin_density
 _atom_site_pbe_ddec_sum_bond_order
 _atom_site_pbe_magmom
U  U0  1  0.99999388  0.50002603  0.50002622  1  0  2.514968  0  4.20664  0  0  2.577128  0  4.883945  0  0  2.693093  0  4.835392  0  0  2.23105  2.492909  0  4.92198  0
H  H1  1  0.79247144  0.80356338  0.93484091  1  0  0.105408  0  0.981329  0  0  0.116577  0  1.041463  0  0  0.119591  0  1.039988  0  0  0.107816  0.114471  0  1.042622  0
H  H2  1  0.20753659  0.06516206  0.19644034  1  0  0.105416  0  0.981406  0  0  0.116594  0  1.041508  0  0  0.119609  0  1.04003  0  0  0.107815  0.114486  0  1.042667  0
H  H3  1  0.20753996  0.19643884  0.06516068  1  0  0.105462  0  0.981327  0  0  0.116641  0  1.041434  0  0  0.119656  0  1.039957  0  0  0.107831  0.114533  0  1.042595  0
H  H4  1  0.79247670  0.93484017  0.80356024  1  0  0.105526  0  0.981291  0  0  0.116702  0  1.041404  0  0  0.119716  0  1.039929  0  0  0.107859  0.114591  0  1.042567  0
H  H5  1  0.79315616  0.63796057  0.10545912  1  0  0.097764  0  0.943386  0  0  0.10802  0  1.00313  0  0  0.110886  0  1.001874  0  0  0.109059  0.10593  0  1.004091  0
H  H6  1  0.20684122  0.89454422  0.36203921  1  0  0.097799  0  0.943376  0  0  0.108065  0  1.003105  0  0  0.11093  0  1.00185  0  0  0.109061  0.105974  0  1.004064  0
H  H7  1  0.20684206  0.36203611  0.89454009  1  0  0.097841  0  0.943346  0  0  0.108093  0  1.003097  0  0  0.110961  0  1.001842  0  0  0.109086  0.106001  0  1.004058  0
H  H8  1  0.79316056  0.10545788  0.63796037  1  0  0.097769  0  0.94343  0  0  0.108033  0  1.003169  0  0  0.110898  0  1.001913  0  0  0.109044  0.10594  0  1.004129  0
C  C9  1  0.49999654  0.75473651  0.24526024  1  0  -0.098316  0  3.784373  0  0  -0.082599  0  4.016418  0  0  -0.094993  0  4.041066  0  0  -0.018784  -0.074411  0  3.999864  0
C  C10  1  0.50000029  0.24525601  0.75472994  1  0  -0.098456  0  3.784382  0  0  -0.082694  0  4.016432  0  0  -0.09509  0  4.04108  0  0  -0.018769  -0.074512  0  3.999884  0
C  C11  1  0.50000662  0.94919558  0.05081189  1  0  0.092584  0  3.701352  0  0  0.101709  0  3.940548  0  0  0.104244  0  3.962163  0  0  0.019947  0.10032  0  3.925435  0
C  C12  1  0.50000416  0.05081072  0.94919383  1  0  0.0926  0  3.701435  0  0  0.101765  0  3.940598  0  0  0.104302  0  3.962212  0  0  0.019958  0.100372  0  3.925485  0
C  C13  1  0.49999253  0.65343318  0.34655747  1  0  0.72543  0  3.809088  0  0  0.699149  0  4.088086  0  0  0.742468  0  4.071359  0  0  0.261014  0.669097  0  4.098585  0
C  C14  1  0.49999475  0.34655927  0.65343425  1  0  0.725651  0  3.808876  0  0  0.699302  0  4.087963  0  0  0.742623  0  4.07123  0  0  0.261035  0.66925  0  4.098462  0
C  C15  1  0.66346850  0.82651904  0.02836751  1  0  -0.095768  0  3.680374  0  0  -0.119773  0  3.933964  0  0  -0.124748  0  3.955113  0  0  -0.075589  -0.116397  0  3.919332  0
C  C16  1  0.33653879  0.97164047  0.17348527  1  0  -0.095606  0  3.680309  0  0  -0.119577  0  3.933823  0  0  -0.12455  0  3.954968  0  0  -0.075499  -0.1162  0  3.919193  0
C  C17  1  0.33654250  0.17348184  0.97163462  1  0  -0.095715  0  3.680533  0  0  -0.119714  0  3.934067  0  0  -0.12469  0  3.955216  0  0  -0.075551  -0.116338  0  3.919435  0
C  C18  1  0.66346957  0.02836439  0.82651491  1  0  -0.095818  0  3.680346  0  0  -0.119838  0  3.933936  0  0  -0.124814  0  3.955082  0  0  -0.075601  -0.116456  0  3.919299  0
C  C19  1  0.66507127  0.73192485  0.12433226  1  0  -0.049777  0  3.73426  0  0  -0.073771  0  3.987764  0  0  -0.072135  0  4.009134  0  0  -0.074747  -0.074669  0  3.973123  0
C  C20  1  0.33492893  0.87567241  0.26807528  1  0  -0.049984  0  3.734324  0  0  -0.074012  0  3.98786  0  0  -0.072376  0  4.00923  0  0  -0.074815  -0.074908  0  3.97322  0
C  C21  1  0.33493039  0.26807054  0.87566782  1  0  -0.049935  0  3.734353  0  0  -0.073953  0  3.987869  0  0  -0.07232  0  4.009245  0  0  -0.074828  -0.074846  0  3.973228  0
C  C22  1  0.66507197  0.12432695  0.73192065  1  0  -0.049849  0  3.73442  0  0  -0.073867  0  3.987953  0  0  -0.072228  0  4.009322  0  0  -0.074788  -0.074762  0  3.973308  0
O  O23  1  0.68034214  0.56713794  0.34545353  1  0  -0.688923  0  2.088232  0  0  -0.676615  0  2.368311  0  0  -0.713093  0  2.35776  0  0  -0.379396  -0.649746  0  2.374427  0
O  O24  1  0.31963984  0.65454004  0.43285330  1  0  -0.689026  0  2.088197  0  0  -0.676694  0  2.368234  0  0  -0.713173  0  2.357681  0  0  -0.37945  -0.649827  0  2.374356  0
O  O25  1  0.31964880  0.43285999  0.65454448  1  0  -0.689042  0  2.088076  0  0  -0.676712  0  2.368186  0  0  -0.713191  0  2.357629  0  0  -0.379429  -0.649846  0  2.374311  0
O  O26  1  0.68034398  0.34545369  0.56713637  1  0  -0.689007  0  2.088142  0  0  -0.676674  0  2.368248  0  0  -0.713154  0  2.357695  0  0  -0.379416  -0.649806  0  2.374369  0
O  O27  1  0.98928312  0.29451996  0.29452569  1  0  -0.714441  0  1.57667  0  0  -0.715615  0  1.862715  0  0  -0.73919  0  1.849922  0  0  -0.75171  -0.700549  0  1.872678  0
O  O28  1  0.01069510  0.70547382  0.70547294  1  0  -0.714554  0  1.578116  0  0  -0.715671  0  1.864168  0  0  -0.739232  0  1.851375  0  0  -0.752202  -0.700601  0  1.874109  0
