# generated using pymatgen
data_Zn2H10C3(SN)2
_symmetry_space_group_name_H-M   'P 1'
_cell_length_a   6.13319062
_cell_length_b   6.28330627
_cell_length_c   10.41405759
_cell_angle_alpha   107.56797796
_cell_angle_beta   90.00010687
_cell_angle_gamma   90.00009112
_symmetry_Int_Tables_number   1
_chemical_formula_structural   Zn2H10C3(SN)2
_chemical_formula_sum   'Zn4 H20 C6 S4 N4'
_cell_volume   382.60564221
_cell_formula_units_Z   2
loop_
 _symmetry_equiv_pos_site_id
 _symmetry_equiv_pos_as_xyz
  1  'x, y, z'
loop_
 _atom_site_type_symbol
 _atom_site_label
 _atom_site_symmetry_multiplicity
 _atom_site_fract_x
 _atom_site_fract_y
 _atom_site_fract_z
 _atom_site_occupancy
 _atom_site_pbe_bader_spin_density
 _atom_site_pbe_cm5_charge
 _atom_site_pbe_ddec_charge
 _atom_site_pbe_ddec_spin_density
 _atom_site_pbe_ddec_sum_bond_order
 _atom_site_pbe_magmom
Zn  Zn0  1  0.11525124  0.55917100  0.42124684  1  0  0.432505  0.610765  0  2.720717  0
Zn  Zn1  1  0.61525381  0.44082611  0.57875279  1  0  0.432495  0.610748  0  2.720722  0
Zn  Zn2  1  0.61526044  0.86217067  0.42121530  1  0  0.432949  0.611496  0  2.719816  0
Zn  Zn3  1  0.11526254  0.13782809  0.57878560  1  0  0.432963  0.611481  0  2.719807  0
H  H4  1  0.19432534  0.51704653  0.12978245  1  0  0.092954  0.068452  0  0.998516  0
H  H5  1  0.69433556  0.48295574  0.87021821  1  0  0.092949  0.068487  0  0.998545  0
H  H6  1  0.69426913  0.61289143  0.12977880  1  0  0.092476  0.067926  0  0.999354  0
H  H7  1  0.19426785  0.38710751  0.87022028  1  0  0.092479  0.067926  0  0.99934  0
H  H8  1  0.00171087  0.30598921  0.12309163  1  0  0.091467  0.061061  0  1.010467  0
H  H9  1  0.50171172  0.69400101  0.87690374  1  0  0.09146  0.061024  0  1.01049  0
H  H10  1  0.50171863  0.81734481  0.12314556  1  0  0.091092  0.060332  0  1.011146  0
H  H11  1  0.00172189  0.18265039  0.87685457  1  0  0.091067  0.060295  0  1.011107  0
H  H12  1  0.28006305  0.01517340  0.00001833  1  0  0.086987  0.081471  0  1.013829  0
H  H13  1  0.78005347  0.98483238  0.99998210  1  0  0.086974  0.081494  0  1.013837  0
H  H14  1  0.46237962  0.23399762  0.99999328  1  0  0.087864  0.086425  0  0.995136  0
H  H15  1  0.96237582  0.76601687  0.00000989  1  0  0.087865  0.086406  0  0.99518  0
H  H16  1  0.42539767  0.35960405  0.26664738  1  0  0.25772  0.261576  0  1.013936  0
H  H17  1  0.92540442  0.64039368  0.73335169  1  0  0.257707  0.261588  0  1.013861  0
H  H18  1  0.92545275  0.90712915  0.26668982  1  0  0.25763  0.261575  0  1.014899  0
H  H19  1  0.42545532  0.09287024  0.73331052  1  0  0.257614  0.261557  0  1.014905  0
H  H20  1  0.24172962  0.16480960  0.26423692  1  0  0.262482  0.261526  0  1.003354  0
H  H21  1  0.74173348  0.83518777  0.73576096  1  0  0.262495  0.26156  0  1.003304  0
H  H22  1  0.74180859  0.09961872  0.26438508  1  0  0.262075  0.262188  0  1.003314  0
H  H23  1  0.24181104  0.90038365  0.73561564  1  0  0.262115  0.262237  0  1.003448  0
C  C24  1  0.17793892  0.34071205  0.12634478  1  0  -0.079403  0.028275  0  3.919255  0
C  C25  1  0.67794295  0.65928350  0.87365558  1  0  -0.07939  0.028328  0  3.919289  0
C  C26  1  0.67795314  0.78582414  0.12640500  1  0  -0.078937  0.029407  0  3.919606  0
C  C27  1  0.17795645  0.21417476  0.87359501  1  0  -0.078912  0.029476  0  3.919532  0
C  C28  1  0.28813748  0.19037688  0.99998412  1  0  -0.172489  -0.213649  0  3.951765  0
C  C29  1  0.78813213  0.80962725  0.00001601  1  0  -0.172452  -0.213613  0  3.951781  0
S  S30  1  0.74308583  0.49740337  0.38238157  1  0  -0.423875  -0.750844  0  2.661104  0
S  S31  1  0.24308875  0.50259399  0.61761823  1  0  -0.423876  -0.750816  0  2.661105  0
S  S32  1  0.24309195  0.88499019  0.38234788  1  0  -0.424008  -0.750763  0  2.660584  0
S  S33  1  0.74309405  0.11500549  0.61765352  1  0  -0.423983  -0.750734  0  2.660494  0
N  N34  1  0.26105085  0.32246654  0.25480430  1  0  -0.635011  -0.51815  0  3.397734  0
N  N35  1  0.76105283  0.67753420  0.74519518  1  0  -0.635007  -0.518253  0  3.397629  0
N  N36  1  0.76111577  0.93249340  0.25487232  1  0  -0.63452  -0.51911  0  3.398688  0
N  N37  1  0.26111834  0.06750399  0.74512846  1  0  -0.634523  -0.519149  0  3.39889  0
