# generated using pymatgen
data_CuH8C6(N2O)4
_symmetry_space_group_name_H-M   'P 1'
_cell_length_a   5.60112358
_cell_length_b   7.63099020
_cell_length_c   7.49881110
_cell_angle_alpha   64.09303585
_cell_angle_beta   71.47475387
_cell_angle_gamma   83.87682661
_symmetry_Int_Tables_number   1
_chemical_formula_structural   CuH8C6(N2O)4
_chemical_formula_sum   'Cu1 H8 C6 N8 O4'
_cell_volume   273.17165016
_cell_formula_units_Z   1
loop_
 _symmetry_equiv_pos_site_id
 _symmetry_equiv_pos_as_xyz
  1  'x, y, z'
loop_
 _atom_site_type_symbol
 _atom_site_label
 _atom_site_symmetry_multiplicity
 _atom_site_fract_x
 _atom_site_fract_y
 _atom_site_fract_z
 _atom_site_occupancy
 _atom_site_hle17_ddec_charge
 _atom_site_hle17_ddec_spin_density
 _atom_site_hle17_ddec_sum_bond_order
 _atom_site_hle17_magmom
 _atom_site_hse06_10hf_ddec_charge
 _atom_site_hse06_10hf_ddec_spin_density
 _atom_site_hse06_10hf_ddec_sum_bond_order
 _atom_site_hse06_10hf_magmom
 _atom_site_hse06_ddec_charge
 _atom_site_hse06_ddec_spin_density
 _atom_site_hse06_ddec_sum_bond_order
 _atom_site_hse06_magmom
 _atom_site_pbe_cm5_charge
 _atom_site_pbe_ddec_charge
 _atom_site_pbe_ddec_spin_density
 _atom_site_pbe_ddec_sum_bond_order
 _atom_site_pbe_magmom
Cu  Cu0  1  0.00000550  0.99999148  0.00000608  1  0.85228  0.712028  1.889708  0.547  0.832377  0.797745  2.271934  0.661  0.918257  0.857997  2.211211  0.744  0.751188  0.776839  0.752784  2.315899  0.603
H  H1  1  0.56310309  0.42795813  0.27415118  1  0.119984  0.000345  0.933253  0.0  0.124677  0.00029  1.004144  0.0  0.128248  0.000231  0.999504  0.0  0.141573  0.121815  0.000324  1.007756  0.0
H  H2  1  0.43688453  0.57204899  0.72586606  1  0.119831  0.000344  0.933001  0.0  0.124592  0.00029  1.003829  0.0  0.128165  0.000232  0.99919  0.0  0.141521  0.121719  0.000324  1.007451  0.0
H  H3  1  0.80862525  0.20849544  0.58856063  1  0.116707  -0.000315  0.959333  0.0  0.117506  -0.000206  1.036766  0.0  0.120809  -0.00017  1.032597  0.0  0.140785  0.114828  -0.000217  1.039888  0.0
H  H4  1  0.19135035  0.79151447  0.41143262  1  0.116669  -0.00032  0.959828  0.0  0.117486  -0.000207  1.037197  0.0  0.12079  -0.000171  1.033027  0.0  0.140827  0.114812  -0.000217  1.040328  0.0
H  H5  1  0.18692315  0.57343330  0.10120749  1  0.297531  0.000114  0.947724  0.0  0.284609  7.8e-05  1.018662  0.0  0.290491  4e-05  1.013137  0.0  0.295803  0.280255  0.000113  1.022696  0.0
H  H6  1  0.81305525  0.42656197  0.89879047  1  0.297548  0.000115  0.947795  0.0  0.284623  7.8e-05  1.018725  0.0  0.290504  4e-05  1.013206  0.0  0.295773  0.280269  0.000113  1.022768  0.0
H  H7  1  0.14661575  0.35326109  0.11064890  1  0.292073  5.2e-05  0.951208  0.0  0.280092  0.000253  1.018996  0.0  0.287303  0.00014  1.012038  0.0  0.290391  0.274831  0.000372  1.024126  0.0
H  H8  1  0.85337526  0.64673270  0.88935898  1  0.29204  5.4e-05  0.951327  0.0  0.280069  0.000253  1.019109  0.0  0.287282  0.00014  1.012144  0.0  0.290356  0.274808  0.000372  1.024234  0.0
C  C9  1  0.53447459  0.90726782  0.97910444  1  0.531686  -0.00763  3.910234  -0.007  0.486619  -0.001567  4.226479  -0.002  0.518601  -0.001769  4.219335  -0.002  0.201796  0.464476  -0.001377  4.230518  -0.002
C  C10  1  0.46552044  0.09271841  0.02088599  1  0.531514  -0.007645  3.910358  -0.007  0.486464  -0.001571  4.226525  -0.002  0.518462  -0.001771  4.219379  -0.002  0.201767  0.464336  -0.001382  4.230573  -0.002
C  C11  1  0.39577222  0.34834703  0.39660473  1  0.122501  0.001699  3.631368  0.003  0.054922  0.001281  3.901199  0.003  0.066435  0.000763  3.911375  0.002  0.15364  0.047492  0.001711  3.894575  0.003
C  C12  1  0.60426307  0.65166529  0.60339307  1  0.122489  0.001706  3.631756  0.003  0.054897  0.001281  3.901523  0.003  0.066402  0.000763  3.911712  0.002  0.153737  0.047472  0.001712  3.89488  0.003
C  C13  1  0.00765938  0.23452275  0.55894542  1  0.145789  -0.007847  3.60155  -0.003  0.075664  -0.002392  3.866021  0.001  0.090578  -0.003942  3.877946  -0.001  0.160002  0.066506  -0.001179  3.858085  0.002
C  C14  1  0.99237129  0.76547648  0.44105801  1  0.145819  -0.007828  3.600793  -0.003  0.075696  -0.002396  3.865306  0.001  0.090607  -0.003948  3.877231  -0.001  0.159828  0.066513  -0.001183  3.857409  0.002
N  N15  1  0.13722934  0.16745311  0.69426106  1  -0.2393  0.063063  3.284839  0.083  -0.207292  0.045467  3.610638  0.063  -0.23471  0.036726  3.632931  0.055  -0.264981  -0.191653  0.049194  3.597998  0.065
N  N16  1  0.86275104  0.83254211  0.30573381  1  -0.239403  0.063088  3.284255  0.083  -0.207377  0.045484  3.610071  0.063  -0.234799  0.036741  3.63237  0.055  -0.264937  -0.191724  0.049214  3.597415  0.065
N  N17  1  0.38177374  0.23984601  0.59347257  1  -0.230147  0.003835  2.966731  0.005  -0.205724  0.003123  3.258244  0.004  -0.215191  0.001484  3.276837  0.002  -0.225398  -0.198951  0.004582  3.246035  0.005
N  N18  1  0.61821377  0.76014924  0.40653141  1  -0.230038  0.003839  2.966632  0.005  -0.205629  0.003124  3.258133  0.004  -0.215098  0.001485  3.276732  0.002  -0.225348  -0.198864  0.004583  3.245916  0.005
N  N19  1  0.16465358  0.34902392  0.36946340  1  0.078643  0.000435  3.604293  0.001  0.195583  0.000372  3.79057  0.001  0.18421  0.000211  3.812465  0.001  -0.14489  0.201211  0.00053  3.778294  0.001
N  N20  1  0.83531725  0.65097591  0.63054347  1  0.078849  0.000428  3.604467  0.001  0.195698  0.000373  3.790836  0.001  0.184329  0.00021  3.812729  0.001  -0.144902  0.201322  0.00053  3.778553  0.001
N  N21  1  0.09009670  0.44086520  0.18894528  1  -0.530626  0.003141  2.867506  0.004  -0.549019  0.001466  3.100469  0.002  -0.558507  0.000769  3.098058  0.001  -0.50945  -0.541406  0.002274  3.102305  0.003
N  N22  1  0.90989843  0.55913439  0.81106040  1  -0.530659  0.00314  2.867444  0.004  -0.549017  0.001469  3.100381  0.002  -0.558518  0.000772  3.097994  0.001  -0.50941  -0.541394  0.002278  3.102203  0.003
O  O23  1  0.76643870  0.86309682  0.94394403  1  -0.554035  0.075968  2.15913  0.109  -0.524248  0.048571  2.431818  0.075  -0.562927  0.035357  2.425222  0.059  -0.307208  -0.497298  0.05801  2.436142  0.085
O  O24  1  0.23358716  0.13688788  0.05606838  1  -0.553902  0.075902  2.159674  0.109  -0.523978  0.048537  2.432224  0.075  -0.562643  0.035334  2.425616  0.059  -0.307114  -0.497046  0.057962  2.43657  0.085
O  O25  1  0.63617458  0.18650265  0.02063300  1  -0.576988  0.011155  2.063619  0.018  -0.549764  0.004403  2.319841  0.009  -0.574655  0.001168  2.308609  0.004  -0.307706  -0.530695  0.00929  2.326609  0.015
O  O26  1  0.36387691  0.81351807  0.97934277  1  -0.576855  0.011132  2.064185  0.018  -0.549524  0.0044  2.320251  0.009  -0.574425  0.001167  2.30908  0.004  -0.307641  -0.530473  0.009284  2.327015  0.015
