# generated using pymatgen
data_FeH5C6N4O
_symmetry_space_group_name_H-M   'P 1'
_cell_length_a   6.53214844
_cell_length_b   9.66273824
_cell_length_c   10.09879624
_cell_angle_alpha   68.40035305
_cell_angle_beta   67.14745681
_cell_angle_gamma   74.39373841
_symmetry_Int_Tables_number   1
_chemical_formula_structural   FeH5C6N4O
_chemical_formula_sum   'Fe2 H10 C12 N8 O2'
_cell_volume   540.19671365
_cell_formula_units_Z   2
loop_
 _symmetry_equiv_pos_site_id
 _symmetry_equiv_pos_as_xyz
  1  'x, y, z'
loop_
 _atom_site_type_symbol
 _atom_site_label
 _atom_site_symmetry_multiplicity
 _atom_site_fract_x
 _atom_site_fract_y
 _atom_site_fract_z
 _atom_site_occupancy
 _atom_site_pbe_bader_charge
 _atom_site_pbe_bader_spin_density
 _atom_site_pbe_cm5_charge
 _atom_site_pbe_ddec_charge
 _atom_site_pbe_ddec_spin_density
 _atom_site_pbe_ddec_sum_bond_order
 _atom_site_pbe_magmom
Fe  Fe0  1  0.99999386  0.99999374  0.00000302  1  1.365952  1.154405  0.894256  0.726464  1.270142  3.656823  1.148
Fe  Fe1  1  0.49999100  0.99999240  0.00001284  1  1.572  3.902048  0.851548  0.944623  4.303597  2.867352  3.866
H  H2  1  0.75169057  0.33451777  0.99951789  1  0.067357  0.001356  0.117005  0.105806  0.000271  1.025217  0.0
H  H3  1  0.91420255  0.99952111  0.33467325  1  0.07097  0.001422  0.116713  0.106174  0.000303  1.024518  0.0
H  H4  1  0.60213123  0.62945685  0.99837135  1  0.067345  0.000635  0.113824  0.101386  -9.7e-05  1.019925  0.0
H  H5  1  0.76978382  0.99874030  0.62956459  1  0.05787  0.000653  0.113428  0.100674  -7.7e-05  1.020243  0.0
H  H6  1  0.24830676  0.66547395  0.00048422  1  0.067379  0.001357  0.116946  0.105754  0.000272  1.025215  0.0
H  H7  1  0.08579932  0.00048203  0.66533091  1  0.071094  0.001422  0.116737  0.106184  0.000303  1.024523  0.0
H  H8  1  0.39786045  0.37053947  0.00161471  1  0.067275  0.000635  0.113844  0.101433  -9.7e-05  1.020031  0.0
H  H9  1  0.23021503  0.00126598  0.37044815  1  0.058004  0.000653  0.113444  0.100676  -7.7e-05  1.020167  0.0
H  H10  1  0.82334312  0.18718743  0.81384338  1  0.600243  0.008378  0.320336  0.390966  0.003793  0.888733  0.007
H  H11  1  0.17665228  0.81280979  0.18616330  1  0.600126  0.00838  0.320333  0.391026  0.003793  0.888768  0.007
C  C12  1  0.92336189  0.32107085  0.99680772  1  0.437111  0.013428  0.008046  -0.067802  0.006194  3.943586  0.007
C  C13  1  0.75865855  0.99693487  0.32112341  1  0.450323  0.014859  0.007837  -0.06942  0.006904  3.943123  0.008
C  C14  1  0.74692999  0.66152126  0.00136434  1  0.392476  0.024088  0.007974  -0.054759  0.011497  3.972401  0.014
C  C15  1  0.59012619  0.00141387  0.66162105  1  0.446814  0.022092  0.007236  -0.054878  0.010656  3.974748  0.013
C  C16  1  0.07662924  0.67893663  0.00318564  1  0.437305  0.013434  0.008128  -0.067682  0.006197  3.943213  0.007
C  C17  1  0.24135237  0.00307211  0.67887239  1  0.450272  0.014862  0.007774  -0.069442  0.006905  3.943201  0.008
C  C18  1  0.25307388  0.33847768  0.99862491  1  0.392849  0.024073  0.008005  -0.054841  0.011491  3.972695  0.014
C  C19  1  0.40987666  0.99859729  0.33837822  1  0.446742  0.022099  0.007349  -0.054703  0.01066  3.974446  0.013
C  C20  1  0.04017312  0.42296268  0.99872571  1  0.05481  0.027195  -0.034666  -0.018259  0.012577  4.133192  0.016
C  C21  1  0.53809292  0.99881217  0.42291029  1  0.007032  0.02631  -0.033703  -0.016142  0.012082  4.12947  0.015
C  C22  1  0.95983716  0.57702758  0.00125502  1  0.007434  0.027231  -0.034694  -0.018499  0.012581  4.1329  0.016
C  C23  1  0.46191983  0.00120952  0.57708809  1  -0.037533  0.026331  -0.033747  -0.01616  0.012078  4.12978  0.015
N  N24  1  0.05888274  0.18881176  0.99454080  1  -0.723745  0.00621  -0.275455  -0.114282  -0.003814  3.638772  -0.001
N  N25  1  0.75768684  0.99454296  0.18881729  1  -0.712762  0.005599  -0.274216  -0.11261  -0.004194  3.638963  -0.001
N  N26  1  0.73882345  0.80111277  0.00389903  1  -0.751092  0.0854  -0.262841  -0.195019  0.042219  3.52969  0.064
N  N27  1  0.45610824  0.00397169  0.80119139  1  -0.779528  0.085073  -0.263901  -0.197277  0.042003  3.533696  0.064
N  N28  1  0.94111498  0.81119470  0.00545927  1  -0.723601  0.00621  -0.275521  -0.114276  -0.003814  3.638816  -0.001
N  N29  1  0.24231535  0.00544891  0.81118562  1  -0.712745  0.005588  -0.274125  -0.112555  -0.0042  3.638747  -0.001
N  N30  1  0.26117185  0.19889011  0.99610677  1  -0.751127  0.085367  -0.262861  -0.195002  0.04221  3.52985  0.064
N  N31  1  0.54389321  0.99601669  0.19881583  1  -0.779501  0.085079  -0.263876  -0.197285  0.042002  3.533708  0.064
O  O32  1  0.78329220  0.09955966  0.90017381  1  -1.108659  0.14906  -0.540582  -0.740147  0.072818  2.287458  0.115
O  O33  1  0.21670441  0.90042985  0.09982327  1  -1.108491  0.14907  -0.540575  -0.740126  0.072824  2.287429  0.115
