# generated using pymatgen
data_LiH6C4NO4
_symmetry_space_group_name_H-M   'P 1'
_cell_length_a   4.96393802
_cell_length_b   5.71402557
_cell_length_c   10.40512786
_cell_angle_alpha   93.26907962
_cell_angle_beta   89.99752461
_cell_angle_gamma   90.00178692
_symmetry_Int_Tables_number   1
_chemical_formula_structural   LiH6C4NO4
_chemical_formula_sum   'Li2 H12 C8 N2 O8'
_cell_volume   294.65150512
_cell_formula_units_Z   2
loop_
 _symmetry_equiv_pos_site_id
 _symmetry_equiv_pos_as_xyz
  1  'x, y, z'
loop_
 _atom_site_type_symbol
 _atom_site_label
 _atom_site_symmetry_multiplicity
 _atom_site_fract_x
 _atom_site_fract_y
 _atom_site_fract_z
 _atom_site_occupancy
 _atom_site_hle17_bader_spin_density
 _atom_site_hle17_ddec_charge
 _atom_site_hle17_ddec_spin_density
 _atom_site_hle17_ddec_sum_bond_order
 _atom_site_hle17_magmom
 _atom_site_hse06_10hf_bader_spin_density
 _atom_site_hse06_10hf_ddec_charge
 _atom_site_hse06_10hf_ddec_spin_density
 _atom_site_hse06_10hf_ddec_sum_bond_order
 _atom_site_hse06_10hf_magmom
 _atom_site_hse06_bader_spin_density
 _atom_site_hse06_ddec_charge
 _atom_site_hse06_ddec_spin_density
 _atom_site_hse06_ddec_sum_bond_order
 _atom_site_hse06_magmom
 _atom_site_pbe_bader_spin_density
 _atom_site_pbe_cm5_charge
 _atom_site_pbe_ddec_charge
 _atom_site_pbe_ddec_spin_density
 _atom_site_pbe_ddec_sum_bond_order
 _atom_site_pbe_magmom
Li  Li0  1  0.72974763  0.96058566  0.58978754  1  0  0.845391  0  0.415853  0  0  0.80684  0  0.519712  0  0  0.815963  0  0.503997  0  0  0.507668  0.800117  0  0.531257  0
Li  Li1  1  0.22976522  0.03940353  0.41021122  1  0  0.845417  0  0.415775  0  0  0.806854  0  0.519637  0  0  0.815976  0  0.503923  0  0  0.50763  0.80013  0  0.531182  0
H  H2  1  0.27149025  0.67015404  0.94743124  1  0  0.343421  0  0.872851  0  0  0.319002  0  0.941084  0  0  0.328723  0  0.932346  0  0  0.306306  0.311806  0  0.947715  0
H  H3  1  0.77153897  0.32985221  0.05256430  1  0  0.343365  0  0.872858  0  0  0.319019  0  0.940999  0  0  0.328739  0  0.932256  0  0  0.306276  0.311822  0  0.947634  0
H  H4  1  0.10342368  0.86868027  0.86058251  1  0  0.330761  0  0.822382  0  0  0.31748  0  0.873152  0  0  0.324716  0  0.867286  0  0  0.329158  0.312203  0  0.877661  0
H  H5  1  0.60346113  0.13133254  0.13941809  1  0  0.330859  0  0.822285  0  0  0.317611  0  0.873024  0  0  0.324846  0  0.867154  0  0  0.329224  0.312334  0  0.877535  0
H  H6  1  0.00871994  0.59067517  0.85656504  1  0  0.337133  0  0.899909  0  0  0.313121  0  0.968909  0  0  0.321578  0  0.962582  0  0  0.308124  0.307179  0  0.973389  0
H  H7  1  0.50874066  0.40933115  0.14343688  1  0  0.337199  0  0.899662  0  0  0.313249  0  0.968608  0  0  0.321705  0  0.962276  0  0  0.308157  0.307306  0  0.973096  0
H  H8  1  0.54354265  0.76119691  0.76520172  1  0  0.072287  0  0.964076  0  0  0.075995  0  1.035468  0  0  0.079136  0  1.033047  0  0  0.123125  0.073742  0  1.037246  0
H  H9  1  0.04356628  0.23879117  0.23480211  1  0  0.072222  0  0.964049  0  0  0.075932  0  1.03546  0  0  0.079074  0  1.03303  0  0  0.123092  0.073676  0  1.037242  0
H  H10  1  0.25338742  0.28866324  0.72681879  1  0  0.125639  0  0.925334  0  0  0.138583  0  0.985683  0  0  0.141321  0  0.984614  0  0  0.118082  0.136655  0  0.98639  0
H  H11  1  0.75346688  0.71134347  0.27320131  1  0  0.125691  0  0.925509  0  0  0.138633  0  0.985832  0  0  0.141378  0  0.984752  0  0  0.118097  0.136705  0  0.986543  0
H  H12  1  0.49426297  0.37630428  0.61660822  1  0  0.134087  0  0.945737  0  0  0.144014  0  1.010462  0  0  0.147748  0  1.008149  0  0  0.129634  0.141079  0  1.012597  0
H  H13  1  0.99434594  0.62367680  0.38339315  1  0  0.134088  0  0.945748  0  0  0.143975  0  1.010491  0  0  0.147702  0  1.008192  0  0  0.129631  0.141047  0  1.012615  0
C  C14  1  0.21896075  0.74785804  0.62627009  1  0  0.680314  0  3.876499  0  0  0.637768  0  4.177439  0  0  0.669584  0  4.16837  0  0  0.233477  0.616298  0  4.182913  0
C  C15  1  0.71895434  0.25214750  0.37373053  1  0  0.680214  0  3.876646  0  0  0.637761  0  4.177465  0  0  0.669576  0  4.168387  0  0  0.233435  0.616284  0  4.182956  0
C  C16  1  0.36105592  0.65817880  0.74483678  1  0  0.079805  0  3.534724  0  0  0.053016  0  3.777953  0  0  0.05334  0  3.788455  0  0  0.015294  0.052745  0  3.770866  0
C  C17  1  0.86109922  0.34183426  0.25517517  1  0  0.080041  0  3.534379  0  0  0.053177  0  3.777654  0  0  0.05352  0  3.788116  0  0  0.015292  0.052906  0  3.770577  0
C  C18  1  0.43314652  0.40007909  0.71811022  1  0  -0.326126  0  3.629379  0  0  -0.365008  0  3.87453  0  0  -0.371614  0  3.881011  0  0  -0.147936  -0.360175  0  3.870077  0
C  C19  1  0.93318447  0.59992128  0.28189525  1  0  -0.326291  0  3.629446  0  0  -0.365089  0  3.874517  0  0  -0.371697  0  3.881011  0  0  -0.147894  -0.360253  0  3.870054  0
C  C20  1  0.66079347  0.30872199  0.80028547  1  0  0.72589  0  3.851114  0  0  0.677797  0  4.160706  0  0  0.710517  0  4.151973  0  0  0.213147  0.655442  0  4.165883  0
C  C21  1  0.16086512  0.69127813  0.19970018  1  0  0.726062  0  3.851309  0  0  0.678046  0  4.160787  0  0  0.710762  0  4.152056  0  0  0.213274  0.655697  0  4.165968  0
N  N22  1  0.17983352  0.70057639  0.85875870  1  0  -0.503744  0  3.171977  0  0  -0.457148  0  3.379472  0  0  -0.472144  0  3.375751  0  0  -0.59518  -0.446764  0  3.382433  0
N  N23  1  0.67988559  0.29944420  0.14123920  1  0  -0.503987  0  3.171446  0  0  -0.457466  0  3.378768  0  0  -0.472502  0  3.375121  0  0  -0.595281  -0.447076  0  3.381725  0
O  O24  1  0.36434196  0.85889632  0.54918151  1  0  -0.773835  0  1.966379  0  0  -0.735253  0  2.211637  0  0  -0.755247  0  2.197352  0  0  -0.440456  -0.721323  0  2.221301  0
O  O25  1  0.86433623  0.14108824  0.45081401  1  0  -0.773832  0  1.966159  0  0  -0.735302  0  2.211401  0  0  -0.755297  0  2.197112  0  0  -0.440439  -0.72137  0  2.221072  0
O  O26  1  0.97117609  0.70456218  0.61386250  1  0  -0.677022  0  1.919876  0  0  -0.628757  0  2.144546  0  0  -0.650714  0  2.134672  0  0  -0.376262  -0.613511  0  2.151178  0
O  O27  1  0.47118929  0.29544406  0.38613069  1  0  -0.676967  0  1.920229  0  0  -0.628737  0  2.144883  0  0  -0.650686  0  2.135001  0  0  -0.376205  -0.613488  0  2.15152  0
O  O28  1  0.76355269  0.11126425  0.76691308  1  0  -0.72355  0  1.920316  0  0  -0.684903  0  2.161477  0  0  -0.707071  0  2.148841  0  0  -0.387056  -0.669348  0  2.169773  0
O  O29  1  0.26359799  0.88872016  0.23307694  1  0  -0.723632  0  1.920452  0  0  -0.685023  0  2.161611  0  0  -0.707182  0  2.148969  0  0  -0.387137  -0.66947  0  2.169909  0
O  O30  1  0.73697187  0.43763389  0.89811574  1  0  -0.670446  0  1.974898  0  0  -0.612539  0  2.201671  0  0  -0.63582  0  2.189535  0  0  -0.337103  -0.596142  0  2.209683  0
O  O31  1  0.23701337  0.56236172  0.10188476  1  0  -0.670453  0  1.975073  0  0  -0.612646  0  2.201906  0  0  -0.635931  0  2.189778  0  0  -0.337172  -0.596253  0  2.209923  0
