# generated using pymatgen
data_H4PbC2SO6
_symmetry_space_group_name_H-M   'P 1'
_cell_length_a   6.38247946
_cell_length_b   6.38328725
_cell_length_c   9.09468259
_cell_angle_alpha   101.23721285
_cell_angle_beta   104.26414131
_cell_angle_gamma   111.74649180
_symmetry_Int_Tables_number   1
_chemical_formula_structural   H4PbC2SO6
_chemical_formula_sum   'H8 Pb2 C4 S2 O12'
_cell_volume   316.24672845
_cell_formula_units_Z   2
loop_
 _symmetry_equiv_pos_site_id
 _symmetry_equiv_pos_as_xyz
  1  'x, y, z'
loop_
 _atom_site_type_symbol
 _atom_site_label
 _atom_site_symmetry_multiplicity
 _atom_site_fract_x
 _atom_site_fract_y
 _atom_site_fract_z
 _atom_site_occupancy
 _atom_site_hle17_bader_spin_density
 _atom_site_hle17_ddec_charge
 _atom_site_hle17_ddec_spin_density
 _atom_site_hle17_ddec_sum_bond_order
 _atom_site_hle17_magmom
 _atom_site_hse06_10hf_bader_spin_density
 _atom_site_hse06_10hf_ddec_charge
 _atom_site_hse06_10hf_ddec_spin_density
 _atom_site_hse06_10hf_ddec_sum_bond_order
 _atom_site_hse06_10hf_magmom
 _atom_site_hse06_bader_spin_density
 _atom_site_hse06_ddec_charge
 _atom_site_hse06_ddec_spin_density
 _atom_site_hse06_ddec_sum_bond_order
 _atom_site_hse06_magmom
 _atom_site_pbe_bader_spin_density
 _atom_site_pbe_cm5_charge
 _atom_site_pbe_ddec_charge
 _atom_site_pbe_ddec_spin_density
 _atom_site_pbe_ddec_sum_bond_order
 _atom_site_pbe_magmom
H  H0  1  0.79900532  0.54273962  0.59289040  1  0  0.172221  0  0.920129  0  0  0.179315  0  0.980046  0  0  0.183728  0  0.977277  0  0  0.118294  0.176336  0  0.98189  0
H  H1  1  0.94867654  0.20497382  0.40699085  1  0  0.172267  0  0.922324  0  0  0.178593  0  0.983321  0  0  0.183051  0  0.980481  0  0  0.117637  0.175575  0  0.985224  0
H  H2  1  0.20101123  0.45723867  0.40710183  1  0  0.172035  0  0.920449  0  0  0.179199  0  0.980383  0  0  0.183599  0  0.977613  0  0  0.118203  0.176241  0  0.98223  0
H  H3  1  0.05136040  0.79503998  0.59303730  1  0  0.17245  0  0.922532  0  0  0.178706  0  0.983522  0  0  0.183186  0  0.980676  0  0  0.117801  0.175668  0  0.985425  0
H  H4  1  0.18763011  0.36449556  0.77461705  1  0  0.445536  0  0.843674  0  0  0.414966  0  0.905603  0  0  0.425052  0  0.891153  0  0  0.303478  0.40769  0  0.915987  0
H  H5  1  0.58857272  0.41166987  0.22514989  1  0  0.446348  0  0.842892  0  0  0.41545  0  0.905299  0  0  0.425544  0  0.890858  0  0  0.30393  0.408167  0  0.91569  0
H  H6  1  0.81238448  0.63549327  0.22540597  1  0  0.445613  0  0.843582  0  0  0.41499  0  0.905581  0  0  0.425095  0  0.89111  0  0  0.303463  0.407711  0  0.91597  0
H  H7  1  0.41140232  0.58832063  0.77484003  1  0  0.44639  0  0.842817  0  0  0.415467  0  0.905271  0  0  0.425566  0  0.890821  0  0  0.303927  0.408179  0  0.915673  0
Pb  Pb8  1  0.37628569  0.75043312  0.12700896  1  0  1.472992  0  1.366445  0  0  1.299391  0  1.770747  0  0  1.358746  0  1.721748  0  0  0.677009  1.254124  0  1.80623  0
Pb  Pb9  1  0.62371590  0.24956993  0.87298734  1  0  1.472872  0  1.365678  0  0  1.299238  0  1.769901  0  0  1.358626  0  1.720893  0  0  0.67703  1.253953  0  1.805403  0
C  C10  1  0.03979980  0.78962122  0.82895148  1  0  0.765825  0  3.8443  0  0  0.714122  0  4.139921  0  0  0.751152  0  4.129881  0  0  0.22249  0.688537  0  4.145927  0
C  C11  1  0.96011428  0.21039569  0.17100390  1  0  0.765654  0  3.844228  0  0  0.714105  0  4.139748  0  0  0.75114  0  4.129698  0  0  0.22221  0.688542  0  4.145744  0
C  C12  1  0.91799219  0.73360201  0.65057131  1  0  -0.470743  0  3.538322  0  0  -0.500243  0  3.781647  0  0  -0.510101  0  3.778824  0  0  -0.157094  -0.493775  0  3.783785  0
C  C13  1  0.08197874  0.26642241  0.34935767  1  0  -0.469827  0  3.536697  0  0  -0.499746  0  3.780392  0  0  -0.509518  0  3.777483  0  0  -0.156961  -0.493392  0  3.782635  0
S  S14  1  0.72860399  0.87987070  0.60752279  1  0  1.392915  0  5.563582  0  0  1.294442  0  6.087364  0  0  1.341881  0  6.065355  0  0  0.523872  1.261505  0  6.10171  0
S  S15  1  0.27150151  0.12011153  0.39250205  1  0  1.391604  0  5.560054  0  0  1.293186  0  6.083972  0  0  1.340613  0  6.061996  0  0  0.523597  1.260267  0  6.098314  0
O  O16  1  0.93657280  0.65572750  0.90131990  1  0  -0.69716  0  1.996964  0  0  -0.625823  0  2.242716  0  0  -0.658212  0  2.23395  0  0  -0.294697  -0.602033  0  2.248099  0
O  O17  1  0.75413358  0.03456176  0.09844901  1  0  -0.695203  0  1.99964  0  0  -0.623794  0  2.245049  0  0  -0.656191  0  2.236308  0  0  -0.292712  -0.599978  0  2.250354  0
O  O18  1  0.06351488  0.34437894  0.09870235  1  0  -0.697206  0  1.996721  0  0  -0.62577  0  2.242224  0  0  -0.658181  0  2.233488  0  0  -0.294474  -0.60195  0  2.24753  0
O  O19  1  0.24574646  0.96534992  0.90158934  1  0  -0.695248  0  1.999836  0  0  -0.623726  0  2.245168  0  0  -0.656146  0  2.236489  0  0  -0.292777  -0.599906  0  2.25047  0
O  O20  1  0.62908971  0.80503718  0.43295551  1  0  -0.705221  0  2.006527  0  0  -0.64899  0  2.281599  0  0  -0.673121  0  2.268027  0  0  -0.329527  -0.631825  0  2.290558  0
O  O21  1  0.37095311  0.19499422  0.56713105  1  0  -0.704928  0  2.005586  0  0  -0.648479  0  2.280481  0  0  -0.672636  0  2.266935  0  0  -0.329092  -0.631305  0  2.289425  0
O  O22  1  0.88272594  0.13901978  0.68123309  1  0  -0.719072  0  1.97841  0  0  -0.656127  0  2.232249  0  0  -0.679647  0  2.218699  0  0  -0.327572  -0.639414  0  2.24101  0
O  O23  1  0.45700824  0.20092421  0.31874824  1  0  -0.718495  0  1.979705  0  0  -0.655315  0  2.233142  0  0  -0.678912  0  2.219753  0  0  -0.327741  -0.638544  0  2.241794  0
O  O24  1  0.11720103  0.86088716  0.31870727  1  0  -0.718972  0  1.977057  0  0  -0.655875  0  2.230772  0  0  -0.679413  0  2.217248  0  0  -0.327517  -0.639153  0  2.239516  0
O  O25  1  0.54302003  0.79910219  0.68121524  1  0  -0.718976  0  1.979149  0  0  -0.655819  0  2.232644  0  0  -0.679412  0  2.21924  0  0  -0.327965  -0.639054  0  2.241319  0
O  O26  1  0.34892013  0.49425728  0.84224379  1  0  -0.861835  0  1.842367  0  0  -0.785752  0  2.021762  0  0  -0.812753  0  1.993265  0  0  -0.537403  -0.766102  0  2.041721  0
O  O27  1  0.65108690  0.50575820  0.15776506  1  0  -0.861835  0  1.842213  0  0  -0.78571  0  2.021668  0  0  -0.812735  0  1.993137  0  0  -0.537406  -0.766065  0  2.041621  0
