# generated using pymatgen
data_CdH8C2(BrN)2
_symmetry_space_group_name_H-M   'P 1'
_cell_length_a   4.30199161
_cell_length_b   7.86644285
_cell_length_c   10.10477680
_cell_angle_alpha   90.00002950
_cell_angle_beta   90.00122299
_cell_angle_gamma   89.99988358
_symmetry_Int_Tables_number   1
_chemical_formula_structural   CdH8C2(BrN)2
_chemical_formula_sum   'Cd2 H16 C4 Br4 N4'
_cell_volume   341.95950176
_cell_formula_units_Z   2
loop_
 _symmetry_equiv_pos_site_id
 _symmetry_equiv_pos_as_xyz
  1  'x, y, z'
loop_
 _atom_site_type_symbol
 _atom_site_label
 _atom_site_symmetry_multiplicity
 _atom_site_fract_x
 _atom_site_fract_y
 _atom_site_fract_z
 _atom_site_occupancy
 _atom_site_hle17_bader_spin_density
 _atom_site_hle17_ddec_charge
 _atom_site_hle17_ddec_spin_density
 _atom_site_hle17_ddec_sum_bond_order
 _atom_site_hle17_magmom
 _atom_site_hse06_10hf_bader_spin_density
 _atom_site_hse06_10hf_ddec_charge
 _atom_site_hse06_10hf_ddec_spin_density
 _atom_site_hse06_10hf_ddec_sum_bond_order
 _atom_site_hse06_10hf_magmom
 _atom_site_hse06_bader_spin_density
 _atom_site_hse06_ddec_charge
 _atom_site_hse06_ddec_spin_density
 _atom_site_hse06_ddec_sum_bond_order
 _atom_site_hse06_magmom
 _atom_site_pbe_bader_spin_density
 _atom_site_pbe_cm5_charge
 _atom_site_pbe_ddec_charge
 _atom_site_pbe_ddec_spin_density
 _atom_site_pbe_ddec_sum_bond_order
 _atom_site_pbe_magmom
Cd  Cd0  1  0.99999641  0.99999923  0.49999897  1  0  0.920933  0  1.842106  0  0  0.759261  0  2.277717  0  0  0.805324  0  2.240725  0  0  0.567931  0.726322  0  2.303144  0
Cd  Cd1  1  0.99999361  0.50000083  0.99999902  1  0  0.920934  0  1.8421  0  0  0.759287  0  2.277719  0  0  0.805349  0  2.240725  0  0  0.56793  0.726347  0  2.303138  0
H  H2  1  0.18911874  0.29033454  0.36554784  1  0  0.279176  0  0.933687  0  0  0.268455  0  0.995163  0  0  0.274666  0  0.991466  0  0  0.2644  0.263899  0  0.998058  0
H  H3  1  0.18911310  0.70966519  0.63444847  1  0  0.27912  0  0.933824  0  0  0.268412  0  0.995261  0  0  0.274622  0  0.991565  0  0  0.264412  0.263857  0  0.99815  0
H  H4  1  0.81087055  0.79033775  0.13444719  1  0  0.279153  0  0.933675  0  0  0.268443  0  0.995146  0  0  0.274654  0  0.991448  0  0  0.264396  0.263885  0  0.99804  0
H  H5  1  0.81088068  0.20966255  0.86555377  1  0  0.279071  0  0.93388  0  0  0.268373  0  0.99533  0  0  0.274584  0  0.991631  0  0  0.264387  0.263816  0  0.998221  0
H  H6  1  0.81087396  0.70966357  0.63444832  1  0  0.279178  0  0.933689  0  0  0.268446  0  0.995167  0  0  0.274656  0  0.991472  0  0  0.264408  0.263889  0  0.998058  0
H  H7  1  0.81088192  0.29033927  0.36555362  1  0  0.279113  0  0.933816  0  0  0.268414  0  0.995258  0  0  0.274625  0  0.991559  0  0  0.264406  0.263858  0  0.998154  0
H  H8  1  0.18911750  0.20966418  0.86555095  1  0  0.279211  0  0.933648  0  0  0.268507  0  0.99511  0  0  0.274718  0  0.991414  0  0  0.264422  0.263951  0  0.998  0
H  H9  1  0.18910969  0.79033429  0.13444734  1  0  0.279111  0  0.933871  0  0  0.268418  0  0.995295  0  0  0.274628  0  0.9916  0  0  0.264413  0.263862  0  0.998189  0
H  H10  1  0.20465660  0.39149468  0.59276720  1  0  0.057445  0  0.958564  0  0  0.071425  0  1.028174  0  0  0.072144  0  1.028052  0  0  0.083234  0.070746  0  1.028617  0
H  H11  1  0.20464457  0.60850631  0.40723123  1  0  0.057468  0  0.958404  0  0  0.071431  0  1.028037  0  0  0.072146  0  1.027925  0  0  0.083216  0.070752  0  1.028482  0
H  H12  1  0.79536673  0.89149808  0.90722720  1  0  0.057472  0  0.958486  0  0  0.071453  0  1.02807  0  0  0.072171  0  1.027952  0  0  0.083232  0.070774  0  1.028509  0
H  H13  1  0.79536398  0.10850352  0.09277164  1  0  0.057468  0  0.958433  0  0  0.071459  0  1.028026  0  0  0.072177  0  1.027909  0  0  0.083231  0.070779  0  1.028471  0
H  H14  1  0.79537096  0.60850216  0.40722896  1  0  0.057493  0  0.958493  0  0  0.071489  0  1.028073  0  0  0.0722  0  1.027969  0  0  0.083261  0.07081  0  1.028517  0
H  H15  1  0.79538067  0.39149435  0.59277285  1  0  0.057365  0  0.95842  0  0  0.071371  0  1.028001  0  0  0.072079  0  1.027901  0  0  0.083212  0.070692  0  1.028443  0
H  H16  1  0.20463758  0.10850385  0.09276995  1  0  0.057464  0  0.95849  0  0  0.071453  0  1.028075  0  0  0.07217  0  1.02796  0  0  0.08323  0.070773  0  1.02852  0
H  H17  1  0.20463801  0.89149587  0.90723046  1  0  0.057461  0  0.958447  0  0  0.071468  0  1.028012  0  0  0.072184  0  1.027898  0  0  0.083218  0.070788  0  1.028453  0
C  C18  1  0.00001952  0.41037370  0.52928244  1  0  0.044603  0  3.638997  0  0  -0.009108  0  3.897381  0  0  -0.005438  0  3.91048  0  0  -0.092314  -0.011702  0  3.888599  0
C  C19  1  0.99999875  0.58962822  0.47071867  1  0  0.044469  0  3.639041  0  0  -0.009265  0  3.897425  0  0  -0.005596  0  3.91052  0  0  -0.092355  -0.01186  0  3.888645  0
C  C20  1  0.99999445  0.91037055  0.97071692  1  0  0.044471  0  3.639081  0  0  -0.009223  0  3.8974  0  0  -0.005558  0  3.910501  0  0  -0.09229  -0.011818  0  3.888612  0
C  C21  1  0.00000522  0.08962502  0.02928320  1  0  0.044444  0  3.639078  0  0  -0.009282  0  3.897474  0  0  -0.005615  0  3.910576  0  0  -0.09236  -0.011876  0  3.888692  0
Br  Br22  1  0.49999801  0.92660796  0.31989177  1  0  -0.562873  0  1.01406  0  0  -0.503309  0  1.312616  0  0  -0.520633  0  1.289885  0  0  -0.251444  -0.490324  0  1.328753  0
Br  Br23  1  0.50000863  0.07339142  0.68010835  1  0  -0.562913  0  1.014061  0  0  -0.503334  0  1.312582  0  0  -0.520658  0  1.289851  0  0  -0.251465  -0.490351  0  1.328716  0
Br  Br24  1  0.50000007  0.42660810  0.18010827  1  0  -0.562905  0  1.014067  0  0  -0.503328  0  1.312593  0  0  -0.520649  0  1.289859  0  0  -0.251454  -0.490343  0  1.328727  0
Br  Br25  1  0.49999728  0.57339256  0.81989185  1  0  -0.562875  0  1.014064  0  0  -0.503311  0  1.312615  0  0  -0.520633  0  1.28988  0  0  -0.251447  -0.490332  0  1.32875  0
N  N26  1  0.99999125  0.27632268  0.42696702  1  0  -0.615275  0  3.142946  0  0  -0.546862  0  3.372482  0  0  -0.57009  0  3.376093  0  0  -0.635447  -0.530312  0  3.36954  0
N  N27  1  0.00000842  0.72367924  0.57303310  1  0  -0.615307  0  3.143019  0  0  -0.546837  0  3.372524  0  0  -0.570062  0  3.376136  0  0  -0.635455  -0.530284  0  3.369577  0
N  N28  1  0.00000971  0.77632042  0.07303196  1  0  -0.615241  0  3.143034  0  0  -0.546857  0  3.372581  0  0  -0.570085  0  3.376192  0  0  -0.635464  -0.530304  0  3.369639  0
N  N29  1  0.99998299  0.22367515  0.92696815  1  0  -0.615234  0  3.143021  0  0  -0.546847  0  3.372565  0  0  -0.570078  0  3.376179  0  0  -0.635445  -0.530295  0  3.369615  0
