# generated using pymatgen
data_Zn2NiH14C8(N2O)4
_symmetry_space_group_name_H-M   'P 1'
_cell_length_a   5.74251433
_cell_length_b   7.86310472
_cell_length_c   9.77259717
_cell_angle_alpha   82.44782424
_cell_angle_beta   76.02662899
_cell_angle_gamma   86.29332994
_symmetry_Int_Tables_number   1
_chemical_formula_structural   Zn2NiH14C8(N2O)4
_chemical_formula_sum   'Zn2 Ni1 H14 C8 N8 O4'
_cell_volume   424.25066776
_cell_formula_units_Z   1
loop_
 _symmetry_equiv_pos_site_id
 _symmetry_equiv_pos_as_xyz
  1  'x, y, z'
loop_
 _atom_site_type_symbol
 _atom_site_label
 _atom_site_symmetry_multiplicity
 _atom_site_fract_x
 _atom_site_fract_y
 _atom_site_fract_z
 _atom_site_occupancy
 _atom_site_hle17_bader_spin_density
 _atom_site_hle17_ddec_charge
 _atom_site_hle17_ddec_spin_density
 _atom_site_hle17_ddec_sum_bond_order
 _atom_site_hle17_magmom
 _atom_site_hse06_10hf_bader_spin_density
 _atom_site_hse06_10hf_ddec_charge
 _atom_site_hse06_10hf_ddec_spin_density
 _atom_site_hse06_10hf_ddec_sum_bond_order
 _atom_site_hse06_10hf_magmom
 _atom_site_hse06_bader_spin_density
 _atom_site_hse06_ddec_charge
 _atom_site_hse06_ddec_spin_density
 _atom_site_hse06_ddec_sum_bond_order
 _atom_site_hse06_magmom
 _atom_site_pbe_bader_spin_density
 _atom_site_pbe_cm5_charge
 _atom_site_pbe_ddec_charge
 _atom_site_pbe_ddec_spin_density
 _atom_site_pbe_ddec_sum_bond_order
 _atom_site_pbe_magmom
Zn  Zn0  1  0.46943217  0.79957366  0.75433926  1  0  1.060373  0  1.883211  0  0  0.885166  0  2.378555  0  0  0.923912  0  2.327117  0  0  0.707678  0.858454  0  2.413815  0
Zn  Zn1  1  0.53057741  0.20042686  0.24566453  1  0  1.060513  0  1.883163  0  0  0.885319  0  2.378467  0  0  0.924062  0  2.327026  0  0  0.707713  0.858606  0  2.413723  0
Ni  Ni2  1  0.00000255  0.50002065  0.50000020  1  0  0.160743  0  3.305888  0  0  0.171577  0  3.767443  0  0  0.184337  0  3.714733  0  0  0.410202  0.171343  0  3.798378  0
H  H3  1  0.24073887  0.02989550  0.90567624  1  0  0.353962  0  0.885966  0  0  0.339682  0  0.945487  0  0  0.34646  0  0.939627  0  0  0.293161  0.33489  0  0.949638  0
H  H4  1  0.75925562  0.97008693  0.09433198  1  0  0.354078  0  0.88583  0  0  0.339783  0  0.945372  0  0  0.346561  0  0.93951  0  0  0.29318  0.334993  0  0.949524  0
H  H5  1  0.07497607  0.85640046  0.93737359  1  0  0.342067  0  0.939712  0  0  0.324287  0  1.005615  0  0  0.33127  0  1.00081  0  0  0.28021  0.31937  0  1.008918  0
H  H6  1  0.92501519  0.14358349  0.06262671  1  0  0.342176  0  0.93963  0  0  0.324369  0  1.005571  0  0  0.331352  0  1.000762  0  0  0.280226  0.319449  0  1.008874  0
H  H7  1  0.31161612  0.86265339  0.00856531  1  0  0.345886  0  0.865621  0  0  0.34097  0  0.907619  0  0  0.34641  0  0.904064  0  0  0.301877  0.33715  0  0.910104  0
H  H8  1  0.68837178  0.13732402  0.99143903  1  0  0.345924  0  0.865749  0  0  0.341023  0  0.907689  0  0  0.346463  0  0.904135  0  0  0.301908  0.3372  0  0.91018  0
H  H9  1  0.74847602  0.95449686  0.53134696  1  0  0.334232  0  0.922251  0  0  0.320609  0  0.982846  0  0  0.32572  0  0.980689  0  0  0.286021  0.317062  0  0.984277  0
H  H10  1  0.25152378  0.04551907  0.46865469  1  0  0.334185  0  0.922399  0  0  0.320557  0  0.983009  0  0  0.325667  0  0.980855  0  0  0.286001  0.317008  0  0.984441  0
H  H11  1  0.57661195  0.09729902  0.62300382  1  0  0.342482  0  0.889125  0  0  0.332079  0  0.942573  0  0  0.337157  0  0.939908  0  0  0.294481  0.328467  0  0.944515  0
H  H12  1  0.42338092  0.90270903  0.37700345  1  0  0.342491  0  0.88899  0  0  0.332091  0  0.942437  0  0  0.337166  0  0.939781  0  0  0.294518  0.32848  0  0.944387  0
H  H13  1  0.82159367  0.01519048  0.67065290  1  0  0.347305  0  0.889268  0  0  0.33528  0  0.944938  0  0  0.340916  0  0.941482  0  0  0.293058  0.331305  0  0.947345  0
H  H14  1  0.17839566  0.98481493  0.32935708  1  0  0.347289  0  0.889303  0  0  0.335255  0  0.944986  0  0  0.340892  0  0.941531  0  0  0.29307  0.33128  0  0.94739  0
H  H15  1  0.98436415  0.39019168  0.88273172  1  0  0.116597  0  0.952532  0  0  0.124052  0  1.01442  0  0  0.127458  0  1.013707  0  0  0.106978  0.121699  0  1.014942  0
H  H16  1  0.01564832  0.60977998  0.11725368  1  0  0.116554  0  0.952758  0  0  0.124011  0  1.01464  0  0  0.127416  0  1.013923  0  0  0.106879  0.121647  0  1.015198  0
C  C17  1  0.09562607  0.30141715  0.59788611  1  0  0.053568  0  3.511861  0  0  0.02903  0  3.848254  0  0  0.033361  0  3.851757  0  0  0.014047  0.022821  0  3.846881  0
C  C18  1  0.90436351  0.69862857  0.40210404  1  0  0.053847  0  3.512326  0  0  0.029332  0  3.848672  0  0  0.033652  0  3.852176  0  0  0.014375  0.023159  0  3.847251  0
C  C19  1  0.17672758  0.62396751  0.58210542  1  0  0.137488  0  3.452275  0  0  0.102187  0  3.778156  0  0  0.112976  0  3.779659  0  0  0.04651  0.092758  0  3.776842  0
C  C20  1  0.82327133  0.37606386  0.41789401  1  0  0.137495  0  3.451675  0  0  0.102201  0  3.777547  0  0  0.112993  0  3.779044  0  0  0.046453  0.092768  0  3.776234  0
C  C21  1  0.78417738  0.63732965  0.90266405  1  0  0.676894  0  3.923231  0  0  0.634142  0  4.207066  0  0  0.667634  0  4.200294  0  0  0.200269  0.611622  0  4.21055  0
C  C22  1  0.21583587  0.36264940  0.09733087  1  0  0.676702  0  3.923388  0  0  0.633939  0  4.207254  0  0  0.667429  0  4.200491  0  0  0.200247  0.611422  0  4.210727  0
C  C23  1  0.94875423  0.49793171  0.94551783  1  0  -0.159973  0  3.657409  0  0  -0.175504  0  3.904447  0  0  -0.181674  0  3.920803  0  0  -0.082233  -0.171452  0  3.893296  0
C  C24  1  0.05125366  0.50205263  0.05447116  1  0  -0.160033  0  3.657673  0  0  -0.175549  0  3.904668  0  0  -0.181711  0  3.921026  0  0  -0.082239  -0.171505  0  3.893524  0
N  N25  1  0.15567358  0.17180994  0.65702680  1  0  -0.46495  0  2.777219  0  0  -0.415303  0  3.021866  0  0  -0.428925  0  3.035074  0  0  -0.365255  -0.405237  0  3.01322  0
N  N26  1  0.84432812  0.82820607  0.34297256  1  0  -0.46511  0  2.777956  0  0  -0.415481  0  3.022631  0  0  -0.429098  0  3.035835  0  0  -0.365495  -0.405423  0  3.013987  0
N  N27  1  0.28606747  0.70310936  0.63705428  1  0  -0.47135  0  3.060988  0  0  -0.391286  0  3.377022  0  0  -0.411245  0  3.382347  0  0  -0.376027  -0.377814  0  3.373955  0
N  N28  1  0.71392524  0.29690791  0.36294507  1  0  -0.471472  0  3.060562  0  0  -0.391422  0  3.376616  0  0  -0.411382  0  3.381929  0  0  -0.376033  -0.377942  0  3.37355  0
N  N29  1  0.24860809  0.89839919  0.91946594  1  0  -0.902328  0  2.945919  0  0  -0.855293  0  3.188904  0  0  -0.875809  0  3.170578  0  0  -0.78037  -0.841177  0  3.201353  0
N  N30  1  0.75138481  0.10158467  0.08053723  1  0  -0.902663  0  2.946032  0  0  -0.855595  0  3.188955  0  0  -0.87611  0  3.170617  0  0  -0.780438  -0.841475  0  3.201409  0
N  N31  1  0.67930342  0.98667320  0.63222388  1  0  -0.887145  0  2.92918  0  0  -0.835357  0  3.153883  0  0  -0.85594  0  3.139735  0  0  -0.769376  -0.821046  0  3.16346  0
N  N32  1  0.32068956  0.01333492  0.36778133  1  0  -0.88713  0  2.929212  0  0  -0.835329  0  3.153921  0  0  -0.855912  0  3.139775  0  0  -0.769396  -0.821016  0  3.163498  0
O  O33  1  0.66039898  0.59841170  0.81762954  1  0  -0.645487  0  2.003519  0  0  -0.578753  0  2.271655  0  0  -0.606439  0  2.255593  0  0  -0.327039  -0.559667  0  2.281833  0
O  O34  1  0.33960078  0.40158000  0.18236905  1  0  -0.645386  0  2.003496  0  0  -0.578651  0  2.27163  0  0  -0.606349  0  2.255603  0  0  -0.326992  -0.559569  0  2.281818  0
O  O35  1  0.77293539  0.78299801  0.94606531  1  0  -0.659918  0  1.943501  0  0  -0.601735  0  2.156897  0  0  -0.625366  0  2.147917  0  0  -0.329077  -0.584841  0  2.162156  0
O  O36  1  0.22708902  0.21697734  0.05392546  1  0  -0.659907  0  1.943611  0  0  -0.601682  0  2.156952  0  0  -0.625306  0  2.14797  0  0  -0.329091  -0.58479  0  2.162213  0
