# generated using pymatgen
data_AgH8C5S3N
_symmetry_space_group_name_H-M   'P 1'
_cell_length_a   5.09194260
_cell_length_b   6.44765771
_cell_length_c   12.94231328
_cell_angle_alpha   90.00092532
_cell_angle_beta   89.99952961
_cell_angle_gamma   108.56885709
_symmetry_Int_Tables_number   1
_chemical_formula_structural   AgH8C5S3N
_chemical_formula_sum   'Ag2 H16 C10 S6 N2'
_cell_volume   402.79028025
_cell_formula_units_Z   2
loop_
 _symmetry_equiv_pos_site_id
 _symmetry_equiv_pos_as_xyz
  1  'x, y, z'
loop_
 _atom_site_type_symbol
 _atom_site_label
 _atom_site_symmetry_multiplicity
 _atom_site_fract_x
 _atom_site_fract_y
 _atom_site_fract_z
 _atom_site_occupancy
 _atom_site_hle17_bader_spin_density
 _atom_site_hle17_ddec_charge
 _atom_site_hle17_ddec_spin_density
 _atom_site_hle17_ddec_sum_bond_order
 _atom_site_hle17_magmom
 _atom_site_hse06_10hf_bader_spin_density
 _atom_site_hse06_10hf_ddec_charge
 _atom_site_hse06_10hf_ddec_spin_density
 _atom_site_hse06_10hf_ddec_sum_bond_order
 _atom_site_hse06_10hf_magmom
 _atom_site_hse06_bader_spin_density
 _atom_site_hse06_ddec_charge
 _atom_site_hse06_ddec_spin_density
 _atom_site_hse06_ddec_sum_bond_order
 _atom_site_hse06_magmom
 _atom_site_pbe_bader_spin_density
 _atom_site_pbe_cm5_charge
 _atom_site_pbe_ddec_charge
 _atom_site_pbe_ddec_spin_density
 _atom_site_pbe_ddec_sum_bond_order
 _atom_site_pbe_magmom
Ag  Ag0  1  0.88462785  0.00817957  0.74999742  1  0  0.335681  0  1.869128  0  0  0.215766  0  2.388501  0  0  0.233424  0  2.349329  0  0  0.360919  0.20366  0  2.416422  0
Ag  Ag1  1  0.11538944  0.99181422  0.25000086  1  0  0.335713  0  1.869333  0  0  0.215825  0  2.388665  0  0  0.233489  0  2.34949  0  0  0.361003  0.203725  0  2.416593  0
H  H2  1  0.15785443  0.75443801  0.45492842  1  0  0.093425  0  0.953692  0  0  0.107088  0  1.022492  0  0  0.108096  0  1.022387  0  0  0.09154  0.106407  0  1.022488  0
H  H3  1  0.15788598  0.75444866  0.04506506  1  0  0.093304  0  0.953865  0  0  0.106948  0  1.022692  0  0  0.107956  0  1.02259  0  0  0.091463  0.106268  0  1.022683  0
H  H4  1  0.84213134  0.24555028  0.54507604  1  0  0.093297  0  0.953738  0  0  0.106991  0  1.022534  0  0  0.107995  0  1.022441  0  0  0.091461  0.106312  0  1.022524  0
H  H5  1  0.84212785  0.24557266  0.95493090  1  0  0.093334  0  0.953841  0  0  0.107025  0  1.022591  0  0  0.108032  0  1.022493  0  0  0.091496  0.106345  0  1.02258  0
H  H6  1  0.98809122  0.61953030  0.56916883  1  0  0.104473  0  0.937442  0  0  0.124232  0  0.993512  0  0  0.124306  0  0.995184  0  0  0.101326  0.124184  0  0.992277  0
H  H7  1  0.98813346  0.61955288  0.93082597  1  0  0.104355  0  0.937557  0  0  0.124156  0  0.993525  0  0  0.124232  0  0.995195  0  0  0.101299  0.124105  0  0.992291  0
H  H8  1  0.01189029  0.38046764  0.43083254  1  0  0.104398  0  0.937393  0  0  0.124162  0  0.993481  0  0  0.124238  0  0.995151  0  0  0.101301  0.124107  0  0.992251  0
H  H9  1  0.01189361  0.38046708  0.06917231  1  0  0.104471  0  0.937567  0  0  0.124227  0  0.9936  0  0  0.124303  0  0.995268  0  0  0.101295  0.124178  0  0.992367  0
H  H10  1  0.38520918  0.21042925  0.45381321  1  0  0.071958  0  1.016897  0  0  0.078815  0  1.098856  0  0  0.080062  0  1.099286  0  0  0.078614  0.077887  0  1.0986  0
H  H11  1  0.38525216  0.21045477  0.04620138  1  0  0.071912  0  1.016688  0  0  0.078659  0  1.098844  0  0  0.079902  0  1.099281  0  0  0.078568  0.077733  0  1.098583  0
H  H12  1  0.61474887  0.78955848  0.54619047  1  0  0.071903  0  1.016914  0  0  0.078683  0  1.098914  0  0  0.079924  0  1.099345  0  0  0.078543  0.077757  0  1.098651  0
H  H13  1  0.61478754  0.78956221  0.95380153  1  0  0.071983  0  1.01666  0  0  0.078773  0  1.098754  0  0  0.08002  0  1.099185  0  0  0.0786  0.077846  0  1.098491  0
H  H14  1  0.35428645  0.36268007  0.56669324  1  0  0.101761  0  0.945195  0  0  0.120071  0  1.002888  0  0  0.120326  0  1.004541  0  0  0.095733  0.119852  0  1.001742  0
H  H15  1  0.35427947  0.36269198  0.93331626  1  0  0.101858  0  0.945437  0  0  0.120193  0  1.003084  0  0  0.12045  0  1.004737  0  0  0.095789  0.119969  0  1.001938  0
H  H16  1  0.64569140  0.63730806  0.43331045  1  0  0.101781  0  0.94505  0  0  0.120012  0  1.00285  0  0  0.120268  0  1.0045  0  0  0.095734  0.119788  0  1.001711  0
H  H17  1  0.64573785  0.63732292  0.06668356  1  0  0.101756  0  0.945315  0  0  0.120082  0  1.003009  0  0  0.120339  0  1.004659  0  0  0.095726  0.119863  0  1.001859  0
C  C18  1  0.02411897  0.76502259  0.52011409  1  0  -0.146913  0  3.662639  0  0  -0.183709  0  3.919395  0  0  -0.183458  0  3.931829  0  0  -0.157653  -0.183709  0  3.910524  0
C  C19  1  0.02414954  0.76504804  0.97987811  1  0  -0.146743  0  3.66252  0  0  -0.183422  0  3.919155  0  0  -0.183173  0  3.931597  0  0  -0.15749  -0.183425  0  3.910281  0
C  C20  1  0.97586907  0.23495601  0.47988496  1  0  -0.146661  0  3.662293  0  0  -0.1835  0  3.919102  0  0  -0.183246  0  3.93154  0  0  -0.157497  -0.18349  0  3.910225  0
C  C21  1  0.97585896  0.23497479  0.02012557  1  0  -0.147034  0  3.662507  0  0  -0.183751  0  3.919222  0  0  -0.183501  0  3.931653  0  0  -0.157602  -0.183751  0  3.910352  0
C  C22  1  0.24982316  0.21931487  0.51869523  1  0  -0.146437  0  3.667814  0  0  -0.179708  0  3.919529  0  0  -0.18018  0  3.932326  0  0  -0.160449  -0.179231  0  3.910553  0
C  C23  1  0.24986623  0.21936335  0.98130727  1  0  -0.146313  0  3.667094  0  0  -0.179643  0  3.918984  0  0  -0.180109  0  3.931767  0  0  -0.160393  -0.179162  0  3.910006  0
C  C24  1  0.75014581  0.78063899  0.48131773  1  0  -0.146355  0  3.667382  0  0  -0.179545  0  3.919188  0  0  -0.180002  0  3.93197  0  0  -0.160355  -0.179062  0  3.910208  0
C  C25  1  0.75016785  0.78066488  0.01869332  1  0  -0.146374  0  3.667439  0  0  -0.179742  0  3.919339  0  0  -0.180214  0  3.932132  0  0  -0.160436  -0.179255  0  3.910356  0
C  C26  1  0.64790949  0.44256439  0.74999493  1  0  0.259691  0  4.005284  0  0  0.2457  0  4.306828  0  0  0.265165  0  4.32073  0  0  0.131019  0.231711  0  4.297816  0
C  C27  1  0.35209365  0.55743886  0.24999717  1  0  0.259673  0  4.005159  0  0  0.245691  0  4.306682  0  0  0.265155  0  4.320585  0  0  0.131042  0.231702  0  4.297678  0
S  S28  1  0.21696001  0.98799411  0.60281318  1  0  0.039041  0  2.636679  0  0  0.072444  0  3.048027  0  0  0.067478  0  3.042375  0  0  -0.011091  0.075578  0  3.052547  0
S  S29  1  0.21698441  0.98802504  0.89718173  1  0  0.038883  0  2.636451  0  0  0.072269  0  3.047856  0  0  0.067302  0  3.04221  0  0  -0.011207  0.075435  0  3.052317  0
S  S30  1  0.78301126  0.01197116  0.39718123  1  0  0.038757  0  2.63614  0  0  0.072172  0  3.047502  0  0  0.067201  0  3.041849  0  0  -0.011241  0.075343  0  3.05196  0
S  S31  1  0.78303870  0.01199484  0.10281809  1  0  0.039018  0  2.63667  0  0  0.072414  0  3.048087  0  0  0.067444  0  3.042447  0  0  -0.011158  0.075553  0  3.052594  0
S  S32  1  0.49458782  0.63059402  0.74999671  1  0  -0.331877  0  2.321981  0  0  -0.294903  0  2.700585  0  0  -0.310198  0  2.689553  0  0  -0.158799  -0.283247  0  2.708296  0
S  S33  1  0.50541166  0.36939942  0.25000233  1  0  -0.331858  0  2.321907  0  0  -0.294869  0  2.700512  0  0  -0.310164  0  2.689481  0  0  -0.158806  -0.283212  0  2.708231  0
N  N34  1  0.74946029  0.30075901  0.74999341  1  0  -0.497931  0  3.009399  0  0  -0.444812  0  3.329481  0  0  -0.461438  0  3.332501  0  0  -0.409134  -0.433889  0  3.328457  0
N  N35  1  0.25054012  0.69924743  0.24999250  1  0  -0.497928  0  3.00948  0  0  -0.444791  0  3.329535  0  0  -0.461421  0  3.332563  0  0  -0.409161  -0.433872  0  3.328522  0
