# generated using pymatgen
data_K2HC3(NO)3
_symmetry_space_group_name_H-M   'P 1'
_cell_length_a   6.63492992
_cell_length_b   6.87476519
_cell_length_c   7.36138806
_cell_angle_alpha   89.99968677
_cell_angle_beta   116.78571002
_cell_angle_gamma   90.00047644
_symmetry_Int_Tables_number   1
_chemical_formula_structural   K2HC3(NO)3
_chemical_formula_sum   'K4 H2 C6 N6 O6'
_cell_volume   299.74959274
_cell_formula_units_Z   2
loop_
 _symmetry_equiv_pos_site_id
 _symmetry_equiv_pos_as_xyz
  1  'x, y, z'
loop_
 _atom_site_type_symbol
 _atom_site_label
 _atom_site_symmetry_multiplicity
 _atom_site_fract_x
 _atom_site_fract_y
 _atom_site_fract_z
 _atom_site_occupancy
 _atom_site_pbe_bader_spin_density
 _atom_site_pbe_cm5_charge
 _atom_site_pbe_ddec_charge
 _atom_site_pbe_ddec_spin_density
 _atom_site_pbe_ddec_sum_bond_order
 _atom_site_pbe_magmom
K  K0  1  0.82254437  0.49998793  0.64516471  1  0  0.826191  0.852038  0  0.723483  0
K  K1  1  0.17748295  0.99997856  0.35483630  1  0  0.826181  0.852016  0  0.723525  0
K  K2  1  0.17745737  0.50001385  0.35483669  1  0  0.826189  0.852045  0  0.723474  0
K  K3  1  0.82253568  0.00001740  0.64516654  1  0  0.826188  0.852034  0  0.723484  0
H  H4  1  0.79522602  0.25000006  0.00003752  1  0  0.318965  0.30645  0  1.01597  0
H  H5  1  0.20477234  0.75000027  0.99996250  1  0  0.318949  0.306422  0  1.016005  0
C  C6  1  0.63329569  0.25000033  0.18502813  1  0  0.315928  0.696306  0  4.199801  0
C  C7  1  0.36670267  0.74999999  0.81497188  1  0  0.315907  0.696309  0  4.199809  0
C  C8  1  0.44831763  0.25000069  0.81514177  1  0  0.31546  0.695349  0  4.198849  0
C  C9  1  0.55167904  0.74999963  0.18485756  1  0  0.315424  0.695266  0  4.198935  0
C  C10  1  0.24359867  0.25000078  0.00011009  1  0  0.269226  0.656254  0  4.260918  0
C  C11  1  0.75639970  0.74999955  0.99988857  1  0  0.269239  0.656205  0  4.260888  0
N  N12  1  0.63997192  0.24999944  0.00007434  1  0  -0.417072  -0.491987  0  3.452938  0
N  N13  1  0.36002476  0.74999943  0.99992499  1  0  -0.417044  -0.491971  0  3.452886  0
N  N14  1  0.43063697  0.25000098  0.18521460  1  0  -0.465967  -0.681156  0  3.249873  0
N  N15  1  0.56936140  0.74999934  0.81478542  1  0  -0.46594  -0.681135  0  3.249896  0
N  N16  1  0.24548724  0.25000134  0.81498253  1  0  -0.465804  -0.680796  0  3.24833  0
N  N17  1  0.75451112  0.74999898  0.18501749  1  0  -0.465801  -0.680753  0  3.24829  0
O  O18  1  0.81979794  0.24999915  0.34638603  1  0  -0.516658  -0.741043  0  2.20667  0
O  O19  1  0.18020042  0.74999972  0.65361535  1  0  -0.516676  -0.741054  0  2.206708  0
O  O20  1  0.47341567  0.24999980  0.65375090  1  0  -0.515795  -0.739909  0  2.206494  0
O  O21  1  0.52658269  0.75000052  0.34624912  1  0  -0.515776  -0.739838  0  2.20656  0
O  O22  1  0.04972325  0.25000292  0.00015055  1  0  -0.490657  -0.723537  0  2.269982  0
O  O23  1  0.95027511  0.75000032  0.99984811  1  0  -0.490656  -0.723517  0  2.269989  0
