# generated using pymatgen
data_MnH7C5N(ClO)2
_symmetry_space_group_name_H-M   'P 1'
_cell_length_a   6.83212128
_cell_length_b   6.70855684
_cell_length_c   9.94220838
_cell_angle_alpha   98.87471386
_cell_angle_beta   110.72234028
_cell_angle_gamma   95.08794753
_symmetry_Int_Tables_number   1
_chemical_formula_structural   MnH7C5N(ClO)2
_chemical_formula_sum   'Mn2 H14 C10 N2 Cl4 O4'
_cell_volume   416.01331073
_cell_formula_units_Z   2
loop_
 _symmetry_equiv_pos_site_id
 _symmetry_equiv_pos_as_xyz
  1  'x, y, z'
loop_
 _atom_site_type_symbol
 _atom_site_label
 _atom_site_symmetry_multiplicity
 _atom_site_fract_x
 _atom_site_fract_y
 _atom_site_fract_z
 _atom_site_occupancy
 _atom_site_hle17_ddec_charge
 _atom_site_hle17_ddec_spin_density
 _atom_site_hle17_ddec_sum_bond_order
 _atom_site_hle17_magmom
 _atom_site_hse06_10hf_ddec_charge
 _atom_site_hse06_10hf_ddec_spin_density
 _atom_site_hse06_10hf_ddec_sum_bond_order
 _atom_site_hse06_10hf_magmom
 _atom_site_hse06_ddec_charge
 _atom_site_hse06_ddec_spin_density
 _atom_site_hse06_ddec_sum_bond_order
 _atom_site_hse06_magmom
 _atom_site_pbe_cm5_charge
 _atom_site_pbe_ddec_charge
 _atom_site_pbe_ddec_spin_density
 _atom_site_pbe_ddec_sum_bond_order
 _atom_site_pbe_magmom
Mn  Mn0  1  0.24356091  0.51081582  0.49652431  1  1.047311  4.769259  1.982521  4.645  0.916421  4.685888  2.468367  4.505  0.971933  4.737345  2.403496  4.576  0.441709  0.872955  4.631415  2.517066  4.431
Mn  Mn1  1  0.75642917  0.48916794  0.50347332  1  1.047235  4.769245  1.982835  4.645  0.916337  4.685903  2.468731  4.505  0.971842  4.737366  2.403864  4.576  0.441718  0.872879  4.631421  2.51743  4.431
H  H2  1  0.72213160  0.42261347  0.82454125  1  0.120645  -0.000973  0.941353  -0.001  0.126804  -0.000362  1.006745  0.0  0.130309  -0.000478  1.003311  0.0  0.127683  0.12376  -0.000186  1.010098  0.0
H  H3  1  0.27792837  0.57739640  0.17547320  1  0.120683  -0.00098  0.94101  -0.001  0.126806  -0.000362  1.006473  0.0  0.130316  -0.000479  1.003023  0.0  0.127697  0.12376  -0.000186  1.009833  0.0
H  H4  1  0.11771428  0.21419336  0.61034468  1  0.389787  -0.000365  0.913492  0.0  0.363093  0.000249  0.986035  0.001  0.372255  9e-06  0.972952  0.001  0.266495  0.356259  0.000523  0.995836  0.001
H  H5  1  0.88228220  0.78580113  0.38965476  1  0.389813  -0.000366  0.913512  0.0  0.363136  0.000249  0.985977  0.001  0.372297  9e-06  0.972894  0.001  0.266517  0.356308  0.000523  0.995781  0.001
H  H6  1  0.25750447  0.11106767  0.53311220  1  0.405589  -4.3e-05  0.891805  0.001  0.375631  0.000876  0.963982  0.002  0.385999  0.000478  0.949079  0.001  0.26662  0.367975  0.001228  0.974993  0.002
H  H7  1  0.74250223  0.88892225  0.46688914  1  0.405619  -4.1e-05  0.891831  0.001  0.375687  0.000876  0.963922  0.002  0.386056  0.000478  0.949017  0.001  0.26666  0.368035  0.001228  0.974929  0.002
H  H8  1  0.85701444  0.57083794  0.10044284  1  0.113043  -0.000242  0.97691  0.0  0.116419  -0.00031  1.045335  0.0  0.12014  -0.000403  1.044314  0.0  0.099084  0.113229  -6.8e-05  1.046724  0.0
H  H9  1  0.14303899  0.42919920  0.89957934  1  0.113046  -0.000194  0.976861  0.001  0.116453  -0.000309  1.045265  0.0  0.120182  -0.000403  1.044233  0.0  0.099085  0.113267  -6.8e-05  1.046656  0.0
H  H10  1  0.84989709  0.94380882  0.18051322  1  0.108563  -0.00074  0.967394  -0.001  0.113318  0.000402  1.036477  0.0  0.117571  9e-05  1.032057  0.0  0.095415  0.109058  0.000851  1.04153  0.0
H  H11  1  0.15006916  0.05620303  0.81946394  1  0.108484  -0.000753  0.966966  -0.001  0.113323  0.000402  1.035984  0.0  0.117585  9e-05  1.031551  0.0  0.095382  0.109053  0.000851  1.041045  0.0
H  H12  1  0.69878131  0.14868937  0.98915018  1  0.112965  0.000332  0.941033  0.001  0.123937  0.000348  0.995456  0.0  0.126504  0.000246  0.996095  0.0  0.108588  0.12184  0.000548  0.99551  0.0
H  H13  1  0.30117804  0.85128840  0.01083536  1  0.112689  0.000332  0.940651  0.001  0.123711  0.000349  0.99509  0.0  0.126275  0.000246  0.995738  0.0  0.108546  0.121616  0.000549  0.995136  0.0
H  H14  1  0.56670918  0.97466766  0.72007350  1  0.127504  -0.000893  0.944167  -0.001  0.13073  -4e-06  1.012618  0.0  0.135039  -0.000243  1.007597  0.0  0.125054  0.127095  0.000237  1.016931  0.0
H  H15  1  0.43327599  0.02533456  0.27992114  1  0.127438  -0.000907  0.94427  -0.001  0.130689  -3e-06  1.012694  0.0  0.134996  -0.000242  1.007674  0.0  0.125054  0.127053  0.000238  1.017012  0.0
C  C16  1  0.72286284  0.58034096  0.87175686  1  0.020117  0.016149  3.576691  0.014  -0.021903  0.01595  3.834562  0.013  -0.013073  0.013259  3.845901  0.011  0.048149  -0.02955  0.02186  3.829871  0.017
C  C17  1  0.27714976  0.41963651  0.12825145  1  0.020356  0.016219  3.577051  0.014  -0.021608  0.015925  3.83497  0.013  -0.012769  0.013232  3.8463  0.011  0.048305  -0.029271  0.021841  3.830306  0.017
C  C18  1  0.79585221  0.66602863  0.01999338  1  -0.10151  -0.013351  3.737593  -0.009  -0.107818  -0.006124  3.987166  -0.005  -0.115618  -0.008292  4.006884  -0.006  -0.079878  -0.103182  -0.00515  3.976669  -0.005
C  C19  1  0.20413938  0.33396393  0.98001673  1  -0.101491  -0.013577  3.738198  -0.01  -0.10785  -0.0061  3.987752  -0.005  -0.115673  -0.008267  4.007497  -0.006  -0.079785  -0.103214  -0.005133  3.977254  -0.005
C  C20  1  0.79026977  0.87271102  0.06469255  1  -0.007776  0.019081  3.693378  0.016  -0.037556  0.020165  3.949747  0.015  -0.030199  0.016044  3.963814  0.013  -0.072498  -0.043754  0.027451  3.943078  0.021
C  C21  1  0.20973098  0.12732876  0.93532841  1  -0.007706  0.019138  3.693983  0.016  -0.037522  0.020123  3.950315  0.015  -0.030173  0.016004  3.964398  0.012  -0.072448  -0.043712  0.027411  3.943642  0.021
C  C22  1  0.70767645  0.98793380  0.95810476  1  -0.097754  -0.013431  3.752817  -0.01  -0.105399  -0.005717  4.005987  -0.005  -0.113391  -0.007962  4.026645  -0.006  -0.077479  -0.100229  -0.00443  3.993125  -0.005
C  C23  1  0.29230989  0.01210506  0.04189453  1  -0.097437  -0.013446  3.753783  -0.01  -0.105142  -0.005693  4.00699  -0.005  -0.113144  -0.007932  4.027677  -0.006  -0.077387  -0.099968  -0.004412  3.994112  -0.005
C  C24  1  0.63321435  0.89788168  0.81081831  1  0.035185  0.017468  3.568825  0.015  -0.009314  0.01784  3.831157  0.014  0.000769  0.014644  3.840401  0.012  0.049856  -0.016791  0.022365  3.826669  0.017
C  C25  1  0.36676419  0.10207966  0.18915979  1  0.035389  0.017481  3.569555  0.015  -0.009087  0.017796  3.831775  0.014  0.000981  0.014601  3.84105  0.012  0.04993  -0.016569  0.022323  3.827304  0.017
N  N26  1  0.64515922  0.69797701  0.77121527  1  0.27438  -0.005017  3.650149  -0.004  0.322811  0.004046  3.909709  0.004  0.321566  -0.001401  3.931279  0.0  -0.109771  0.322045  0.009574  3.895264  0.01
N  N27  1  0.35483168  0.30199404  0.22875085  1  0.273983  -0.005007  3.649306  -0.004  0.322369  0.004085  3.908902  0.004  0.32113  -0.001353  3.93046  0.0  -0.110074  0.321586  0.009612  3.894476  0.01
Cl  Cl28  1  0.20320928  0.82255973  0.39153446  1  -0.604582  0.042762  0.979378  0.026  -0.545844  0.053205  1.249257  0.028  -0.56743  0.045847  1.225077  0.022  -0.245436  -0.526588  0.060431  1.266232  0.033
Cl  Cl29  1  0.79679081  0.17743788  0.60846421  1  -0.604576  0.042774  0.979456  0.026  -0.54584  0.053219  1.249354  0.028  -0.567426  0.045859  1.225171  0.022  -0.245446  -0.526589  0.060447  1.266318  0.033
Cl  Cl30  1  0.11016570  0.65639117  0.69148950  1  -0.577456  0.085115  1.028524  0.05  -0.520408  0.110756  1.32504  0.058  -0.546246  0.096931  1.301296  0.048  -0.242611  -0.496636  0.123549  1.341449  0.068
Cl  Cl31  1  0.88982330  0.34359571  0.30850623  1  -0.577481  0.085124  1.0285  0.05  -0.520411  0.110769  1.32498  0.058  -0.54625  0.09694  1.301235  0.048  -0.242609  -0.496637  0.123564  1.341389  0.068
O  O32  1  0.57495069  0.61494537  0.62796062  1  -0.562708  0.056342  2.018838  0.033  -0.494832  0.066657  2.305071  0.037  -0.526146  0.061721  2.298372  0.034  -0.230276  -0.470184  0.07041  2.309751  0.039
O  O33  1  0.42507938  0.38508243  0.37205989  1  -0.562761  0.056388  2.017737  0.033  -0.494823  0.066713  2.303945  0.037  -0.526156  0.061771  2.297198  0.034  -0.230248  -0.470076  0.070464  2.308544  0.039
O  O34  1  0.25553029  0.23836973  0.59834802  1  -0.803291  0.028558  1.947569  0.02  -0.746144  0.036096  2.145323  0.025  -0.770013  0.032121  2.115104  0.021  -0.570778  -0.727389  0.039358  2.16784  0.027
O  O35  1  0.74447486  0.76162008  0.40165595  1  -0.803294  0.028555  1.947708  0.02  -0.746172  0.036094  2.145312  0.025  -0.770038  0.032119  2.115092  0.021  -0.570823  -0.727433  0.039355  2.167795  0.027
