# generated using pymatgen
data_KH5C7SN4
_symmetry_space_group_name_H-M   'P 1'
_cell_length_a   6.31849843
_cell_length_b   7.04352473
_cell_length_c   11.24663893
_cell_angle_alpha   100.54409318
_cell_angle_beta   102.48481906
_cell_angle_gamma   112.16511763
_symmetry_Int_Tables_number   1
_chemical_formula_structural   KH5C7SN4
_chemical_formula_sum   'K2 H10 C14 S2 N8'
_cell_volume   432.77184657
_cell_formula_units_Z   2
loop_
 _symmetry_equiv_pos_site_id
 _symmetry_equiv_pos_as_xyz
  1  'x, y, z'
loop_
 _atom_site_type_symbol
 _atom_site_label
 _atom_site_symmetry_multiplicity
 _atom_site_fract_x
 _atom_site_fract_y
 _atom_site_fract_z
 _atom_site_occupancy
 _atom_site_hle17_bader_spin_density
 _atom_site_hle17_ddec_charge
 _atom_site_hle17_ddec_spin_density
 _atom_site_hle17_ddec_sum_bond_order
 _atom_site_hle17_magmom
 _atom_site_hse06_10hf_bader_spin_density
 _atom_site_hse06_10hf_ddec_charge
 _atom_site_hse06_10hf_ddec_spin_density
 _atom_site_hse06_10hf_ddec_sum_bond_order
 _atom_site_hse06_10hf_magmom
 _atom_site_hse06_bader_spin_density
 _atom_site_hse06_ddec_charge
 _atom_site_hse06_ddec_spin_density
 _atom_site_hse06_ddec_sum_bond_order
 _atom_site_hse06_magmom
 _atom_site_pbe_bader_spin_density
 _atom_site_pbe_cm5_charge
 _atom_site_pbe_ddec_charge
 _atom_site_pbe_ddec_spin_density
 _atom_site_pbe_ddec_sum_bond_order
 _atom_site_pbe_magmom
K  K0  1  0.77496657  0.93957342  0.09733768  1  0  0.823558  0  0.531737  0  0  0.740765  0  0.753302  0  0  0.754366  0  0.735865  0  0  0.67538  0.73064  0  0.765609  0
K  K1  1  0.22504847  0.06046359  0.90266580  1  0  0.823594  0  0.531669  0  0  0.74076  0  0.753297  0  0  0.754359  0  0.735861  0  0  0.67537  0.730627  0  0.765605  0
H  H2  1  0.61239883  0.17842249  0.55279810  1  0  0.105976  0  0.951909  0  0  0.116828  0  1.0144  0  0  0.119435  0  1.01335  0  0  0.10663  0.115014  0  1.015132  0
H  H3  1  0.38761672  0.82161943  0.44721575  1  0  0.105965  0  0.951953  0  0  0.11682  0  1.014434  0  0  0.119427  0  1.013386  0  0  0.106633  0.115006  0  1.015163  0
H  H4  1  0.76198044  0.09916184  0.37327041  1  0  0.074722  0  0.99046  0  0  0.084311  0  1.056839  0  0  0.086979  0  1.056273  0  0  0.089998  0.082358  0  1.057386  0
H  H5  1  0.23799262  0.90083496  0.62673852  1  0  0.074718  0  0.990256  0  0  0.084306  0  1.056656  0  0  0.086977  0  1.056085  0  0  0.089987  0.08233  0  1.057215  0
H  H6  1  0.20663643  0.23806841  0.40883299  1  0  0.08301  0  0.969698  0  0  0.08917  0  1.042174  0  0  0.092525  0  1.039743  0  0  0.09659  0.086621  0  1.044174  0
H  H7  1  0.79331912  0.76187698  0.59115217  1  0  0.083021  0  0.969726  0  0  0.089227  0  1.042154  0  0  0.092584  0  1.039722  0  0  0.096622  0.086707  0  1.044123  0
H  H8  1  0.49362345  0.47026105  0.62368573  1  0  0.088808  0  0.963321  0  0  0.098646  0  1.026117  0  0  0.100751  0  1.026116  0  0  0.101056  0.097177  0  1.026118  0
H  H9  1  0.50635938  0.52967672  0.37629853  1  0  0.088819  0  0.963355  0  0  0.098667  0  1.026088  0  0  0.100774  0  1.026086  0  0  0.101028  0.0972  0  1.02609  0
H  H10  1  0.33867987  0.54971390  0.80404275  1  0  0.113271  0  0.960354  0  0  0.117968  0  1.032032  0  0  0.121434  0  1.02942  0  0  0.113166  0.1154  0  1.034048  0
H  H11  1  0.66134708  0.45028671  0.19596189  1  0  0.113366  0  0.960605  0  0  0.118102  0  1.032191  0  0  0.121567  0  1.029579  0  0  0.113247  0.115535  0  1.034216  0
C  C12  1  0.73987783  0.27199095  0.84319215  1  0  0.295648  0  3.885488  0  0  0.261901  0  4.184475  0  0  0.280271  0  4.195581  0  0  0.198549  0.249553  0  4.176658  0
C  C13  1  0.26014827  0.72803197  0.15681745  1  0  0.295613  0  3.885514  0  0  0.261873  0  4.184457  0  0  0.280237  0  4.195578  0  0  0.198458  0.249535  0  4.176624  0
C  C14  1  0.96756826  0.36556678  0.68761420  1  0  0.153127  0  3.805965  0  0  0.145282  0  4.055594  0  0  0.148719  0  4.078054  0  0  0.091727  0.14287  0  4.040442  0
C  C15  1  0.03242183  0.63443803  0.31238353  1  0  0.153408  0  3.805727  0  0  0.145477  0  4.055442  0  0  0.148917  0  4.077898  0  0  0.091644  0.143067  0  4.040297  0
C  C16  1  0.80490486  0.23871401  0.56732707  1  0  -0.129988  0  3.73259  0  0  -0.150523  0  3.981884  0  0  -0.15256  0  4.001647  0  0  -0.083306  -0.14913  0  3.968651  0
C  C17  1  0.19509522  0.76128462  0.43267394  1  0  -0.129926  0  3.732393  0  0  -0.150453  0  3.981702  0  0  -0.152495  0  4.001472  0  0  -0.083192  -0.149061  0  3.968461  0
C  C18  1  0.89190193  0.19448351  0.46718977  1  0  -0.049851  0  3.773953  0  0  -0.057184  0  4.010081  0  0  -0.059996  0  4.03303  0  0  -0.085164  -0.055271  0  3.994723  0
C  C19  1  0.10805269  0.80548427  0.53280658  1  0  -0.049914  0  3.773184  0  0  -0.057223  0  4.009309  0  0  -0.060033  0  4.032257  0  0  -0.085201  -0.055288  0  3.993957  0
C  C20  1  0.13961773  0.27573135  0.48741486  1  0  -0.069056  0  3.75879  0  0  -0.082346  0  4.003331  0  0  -0.083666  0  4.024556  0  0  -0.084265  -0.081306  0  3.989142  0
C  C21  1  0.86032635  0.72421393  0.51257328  1  0  -0.069034  0  3.758385  0  0  -0.082379  0  4.002917  0  0  -0.083694  0  4.024125  0  0  -0.084199  -0.081363  0  3.988708  0
C  C22  1  0.30044396  0.40357238  0.60811065  1  0  -0.055113  0  3.746617  0  0  -0.065443  0  3.99146  0  0  -0.068157  0  4.014153  0  0  -0.089199  -0.063576  0  3.976056  0
C  C23  1  0.69952981  0.59639069  0.39187162  1  0  -0.05508  0  3.746615  0  0  -0.065398  0  3.991467  0  0  -0.068111  0  4.014159  0  0  -0.089191  -0.063535  0  3.976081  0
C  C24  1  0.21562976  0.44952204  0.70951644  1  0  -0.141918  0  3.720411  0  0  -0.160587  0  3.968822  0  0  -0.163061  0  3.989077  0  0  -0.083381  -0.158827  0  3.95513  0
C  C25  1  0.78435688  0.55046828  0.29047129  1  0  -0.142143  0  3.720756  0  0  -0.160836  0  3.969183  0  0  -0.16331  0  3.98943  0  0  -0.083495  -0.159078  0  3.95551  0
S  S26  1  0.66438176  0.00508334  0.81122866  1  0  -0.61767  0  1.922586  0  0  -0.599683  0  2.253649  0  0  -0.615622  0  2.24718  0  0  -0.308775  -0.587859  0  2.257616  0
S  S27  1  0.33563272  0.99494573  0.18877656  1  0  -0.617753  0  1.922617  0  0  -0.599837  0  2.253768  0  0  -0.615775  0  2.247301  0  0  -0.30881  -0.588007  0  2.257729  0
N  N28  1  0.87436459  0.41141089  0.78823498  1  0  -0.057609  0  3.538038  0  0  0.026037  0  3.758511  0  0  0.012444  0  3.781563  0  0  -0.117511  0.034986  0  3.742972  0
N  N29  1  0.12567380  0.58861063  0.21177692  1  0  -0.057843  0  3.53835  0  0  0.02589  0  3.758763  0  0  0.012298  0  3.781815  0  0  -0.117373  0.03483  0  3.743235  0
N  N30  1  0.89892514  0.61193727  0.83985615  1  0  -0.157585  0  2.940588  0  0  -0.150476  0  3.229533  0  0  -0.149128  0  3.238637  0  0  -0.152359  -0.151267  0  3.223174  0
N  N31  1  0.10111523  0.38809855  0.16015309  1  0  -0.15747  0  2.941138  0  0  -0.150399  0  3.230094  0  0  -0.149049  0  3.239198  0  0  -0.15244  -0.151191  0  3.223737  0
N  N32  1  0.78242523  0.59463368  0.92257091  1  0  -0.094071  0  3.110749  0  0  -0.075789  0  3.421988  0  0  -0.072863  0  3.430362  0  0  -0.165088  -0.077128  0  3.415795  0
N  N33  1  0.21761026  0.40540204  0.07743592  1  0  -0.094391  0  3.110676  0  0  -0.076118  0  3.421979  0  0  -0.073197  0  3.430356  0  0  -0.165187  -0.077449  0  3.415776  0
N  N34  1  0.68253077  0.39137476  0.92809583  1  0  -0.365293  0  2.974115  0  0  -0.338873  0  3.27362  0  0  -0.351871  0  3.283963  0  0  -0.304053  -0.330253  0  3.266601  0
N  N35  1  0.31749905  0.60865931  0.07191189  1  0  -0.364916  0  2.973545  0  0  -0.338484  0  3.273033  0  0  -0.351478  0  3.283377  0  0  -0.303896  -0.329864  0  3.266005  0
