# generated using pymatgen
data_TbHCO4
_symmetry_space_group_name_H-M   'P 1'
_cell_length_a   4.83371002
_cell_length_b   7.02634628
_cell_length_c   8.48833319
_cell_angle_alpha   89.99937200
_cell_angle_beta   89.99998010
_cell_angle_gamma   90.00000756
_symmetry_Int_Tables_number   1
_chemical_formula_structural   TbHCO4
_chemical_formula_sum   'Tb4 H4 C4 O16'
_cell_volume   288.29197989
_cell_formula_units_Z   4
loop_
 _symmetry_equiv_pos_site_id
 _symmetry_equiv_pos_as_xyz
  1  'x, y, z'
loop_
 _atom_site_type_symbol
 _atom_site_label
 _atom_site_symmetry_multiplicity
 _atom_site_fract_x
 _atom_site_fract_y
 _atom_site_fract_z
 _atom_site_occupancy
 _atom_site_hle17_bader_spin_density
 _atom_site_hle17_ddec_charge
 _atom_site_hle17_ddec_spin_density
 _atom_site_hle17_ddec_sum_bond_order
 _atom_site_hle17_magmom
 _atom_site_hse06_10hf_bader_spin_density
 _atom_site_hse06_10hf_ddec_charge
 _atom_site_hse06_10hf_ddec_spin_density
 _atom_site_hse06_10hf_ddec_sum_bond_order
 _atom_site_hse06_10hf_magmom
 _atom_site_hse06_bader_spin_density
 _atom_site_hse06_ddec_charge
 _atom_site_hse06_ddec_spin_density
 _atom_site_hse06_ddec_sum_bond_order
 _atom_site_hse06_magmom
 _atom_site_pbe_bader_spin_density
 _atom_site_pbe_cm5_charge
 _atom_site_pbe_ddec_charge
 _atom_site_pbe_ddec_spin_density
 _atom_site_pbe_ddec_sum_bond_order
 _atom_site_pbe_magmom
Tb  Tb0  1  0.01829647  0.11711241  0.16541121  1  0  2.340329  0  1.585423  0  0  2.210968  0  2.011908  0  0  2.257895  0  1.971029  0  0  1.507552  2.17429  0  2.045042  0
Tb  Tb1  1  0.48170234  0.88288836  0.66541397  1  0  2.340363  0  1.585469  0  0  2.210962  0  2.012032  0  0  2.257867  0  1.971188  0  0  1.507515  2.174293  0  2.045154  0
Tb  Tb2  1  0.51829732  0.38288769  0.83458962  1  0  2.340333  0  1.585432  0  0  2.210966  0  2.011916  0  0  2.257896  0  1.971046  0  0  1.507554  2.174288  0  2.045049  0
Tb  Tb3  1  0.98170138  0.61711089  0.33458575  1  0  2.340355  0  1.58548  0  0  2.210951  0  2.012035  0  0  2.25785  0  1.971203  0  0  1.507516  2.174285  0  2.045158  0
H  H4  1  0.86743729  0.75635026  0.03144434  1  0  0.441982  0  0.847681  0  0  0.416183  0  0.904693  0  0  0.426301  0  0.889797  0  0  0.297704  0.409067  0  0.915139  0
H  H5  1  0.63256160  0.24364947  0.53144474  1  0  0.441957  0  0.847728  0  0  0.416194  0  0.90469  0  0  0.426313  0  0.889794  0  0  0.297712  0.409077  0  0.915137  0
H  H6  1  0.36743804  0.74364898  0.96855658  1  0  0.441993  0  0.847664  0  0  0.416194  0  0.904676  0  0  0.426313  0  0.889781  0  0  0.297713  0.409078  0  0.915123  0
H  H7  1  0.13256265  0.25635063  0.46855606  1  0  0.441985  0  0.847674  0  0  0.416187  0  0.904684  0  0  0.426305  0  0.889789  0  0  0.29771  0.409071  0  0.915131  0
C  C8  1  0.50543784  0.45086054  0.17030931  1  0  0.937005  0  4.037915  0  0  0.866823  0  4.345809  0  0  0.911026  0  4.320517  0  0  0.259193  0.836864  0  4.361304  0
C  C9  1  0.99456096  0.54912598  0.67032335  1  0  0.93689  0  4.038011  0  0  0.86685  0  4.345717  0  0  0.911051  0  4.320419  0  0  0.259116  0.836892  0  4.361212  0
C  C10  1  0.00543864  0.04914098  0.82969152  1  0  0.936999  0  4.037777  0  0  0.866827  0  4.345656  0  0  0.911034  0  4.320362  0  0  0.259164  0.836869  0  4.361149  0
C  C11  1  0.49456214  0.95087327  0.32967636  1  0  0.936867  0  4.038263  0  0  0.866837  0  4.345938  0  0  0.911042  0  4.320644  0  0  0.259095  0.836878  0  4.361431  0
O  O12  1  0.00159095  0.79683019  0.11168261  1  0  -1.162745  0  1.704499  0  0  -1.106963  0  1.930174  0  0  -1.133057  0  1.905172  0  0  -0.778591  -1.08774  0  1.947268  0
O  O13  1  0.49841202  0.20316844  0.61168213  1  0  -1.162711  0  1.704558  0  0  -1.10698  0  1.930179  0  0  -1.133074  0  1.905176  0  0  -0.778583  -1.087754  0  1.947273  0
O  O14  1  0.50159174  0.70316902  0.88831720  1  0  -1.162759  0  1.70449  0  0  -1.106977  0  1.930169  0  0  -1.133071  0  1.905167  0  0  -0.778598  -1.087755  0  1.947262  0
O  O15  1  0.99841107  0.29683170  0.38831742  1  0  -1.162745  0  1.704509  0  0  -1.106976  0  1.930198  0  0  -1.133071  0  1.905198  0  0  -0.778595  -1.087751  0  1.94729  0
O  O16  1  0.29491840  0.38982364  0.09123519  1  0  -0.878121  0  2.171121  0  0  -0.821622  0  2.432313  0  0  -0.845964  0  2.416538  0  0  -0.449996  -0.803762  0  2.441944  0
O  O17  1  0.20508872  0.61017526  0.59123106  1  0  -0.878122  0  2.170814  0  0  -0.821655  0  2.431905  0  0  -0.845998  0  2.41614  0  0  -0.449971  -0.803803  0  2.441557  0
O  O18  1  0.79491709  0.11017649  0.90876558  1  0  -0.878121  0  2.171058  0  0  -0.821618  0  2.432234  0  0  -0.845962  0  2.416457  0  0  -0.449985  -0.80376  0  2.441862  0
O  O19  1  0.70508570  0.88982396  0.40876871  1  0  -0.878094  0  2.170811  0  0  -0.821629  0  2.431902  0  0  -0.845973  0  2.416134  0  0  -0.449955  -0.80379  0  2.441586  0
O  O20  1  0.75260618  0.41711647  0.11773846  1  0  -0.884018  0  2.143037  0  0  -0.825614  0  2.399848  0  0  -0.851042  0  2.386277  0  0  -0.433049  -0.807153  0  2.408274  0
O  O21  1  0.74739472  0.58288781  0.61773103  1  0  -0.883964  0  2.142779  0  0  -0.8256  0  2.399509  0  0  -0.851019  0  2.385927  0  0  -0.432991  -0.807136  0  2.407937  0
O  O22  1  0.25261109  0.08288507  0.88226233  1  0  -0.884023  0  2.142985  0  0  -0.825635  0  2.399827  0  0  -0.851065  0  2.386252  0  0  -0.43303  -0.807167  0  2.408231  0
O  O23  1  0.24739586  0.91711284  0.38226873  1  0  -0.883944  0  2.142764  0  0  -0.825602  0  2.399534  0  0  -0.851025  0  2.385952  0  0  -0.43299  -0.807137  0  2.407963  0
O  O24  1  0.47596356  0.55299673  0.29479383  1  0  -0.794485  0  2.03825  0  0  -0.739794  0  2.290844  0  0  -0.765165  0  2.277456  0  0  -0.402823  -0.721584  0  2.29908  0
O  O25  1  0.02402276  0.44702226  0.79478180  1  0  -0.79437  0  2.038894  0  0  -0.73973  0  2.291441  0  0  -0.765125  0  2.278089  0  0  -0.402792  -0.721526  0  2.299682  0
O  O26  1  0.97596244  0.94700394  0.70520589  1  0  -0.794472  0  2.038195  0  0  -0.739797  0  2.290808  0  0  -0.765161  0  2.277397  0  0  -0.402815  -0.721589  0  2.299042  0
O  O27  1  0.52402186  0.05297642  0.20521903  1  0  -0.794362  0  2.039093  0  0  -0.739752  0  2.291695  0  0  -0.76512  0  2.278272  0  0  -0.402782  -0.721546  0  2.299937  0
