# generated using pymatgen
data_HgH7C9Br2N
_symmetry_space_group_name_H-M   'P 1'
_cell_length_a   7.64820591
_cell_length_b   7.51826481
_cell_length_c   10.05219792
_cell_angle_alpha   111.91200246
_cell_angle_beta   93.72293953
_cell_angle_gamma   93.08370135
_symmetry_Int_Tables_number   1
_chemical_formula_structural   HgH7C9Br2N
_chemical_formula_sum   'Hg2 H14 C18 Br4 N2'
_cell_volume   533.22143641
_cell_formula_units_Z   2
loop_
 _symmetry_equiv_pos_site_id
 _symmetry_equiv_pos_as_xyz
  1  'x, y, z'
loop_
 _atom_site_type_symbol
 _atom_site_label
 _atom_site_symmetry_multiplicity
 _atom_site_fract_x
 _atom_site_fract_y
 _atom_site_fract_z
 _atom_site_occupancy
 _atom_site_pbe_bader_spin_density
 _atom_site_pbe_cm5_charge
 _atom_site_pbe_ddec_charge
 _atom_site_pbe_ddec_spin_density
 _atom_site_pbe_ddec_sum_bond_order
 _atom_site_pbe_magmom
Hg  Hg0  1  0.74237904  0.47787475  0.94338527  1  0  0.428683  0.454504  0  2.714411  0
Hg  Hg1  1  0.25766045  0.52213898  0.05662707  1  0  0.428679  0.454563  0  2.714439  0
H  H2  1  0.62876298  0.83060457  0.88401399  1  0  0.10352  0.080723  0  1.020847  0
H  H3  1  0.37126406  0.16939735  0.11599461  1  0  0.103568  0.080757  0  1.020811  0
H  H4  1  0.81631735  0.22055158  0.67571000  1  0  0.087514  0.09796  0  1.064186  0
H  H5  1  0.18368181  0.77945263  0.32428244  1  0  0.087446  0.097855  0  1.064088  0
H  H6  1  0.77781928  0.46447251  0.27611960  1  0  0.08846  0.090733  0  1.050481  0
H  H7  1  0.22215982  0.53551964  0.72387774  1  0  0.08846  0.090718  0  1.050499  0
H  H8  1  0.59506172  0.96559768  0.69289944  1  0  0.09197  0.111674  0  1.04199  0
H  H9  1  0.40496317  0.03440989  0.30711567  1  0  0.091963  0.111651  0  1.041876  0
H  H10  1  0.87094913  0.13735927  0.23220003  1  0  0.084453  0.09666  0  1.047045  0
H  H11  1  0.12901876  0.86264263  0.76780072  1  0  0.084434  0.096585  0  1.047092  0
H  H12  1  0.88638056  0.01565088  0.43025678  1  0  0.097686  0.095798  0  1.021912  0
H  H13  1  0.11358329  0.98432944  0.56973074  1  0  0.097704  0.095918  0  1.02206  0
H  H14  1  0.66938446  0.76666035  0.44193355  1  0  0.097308  0.10341  0  1.028232  0
H  H15  1  0.33060484  0.23334635  0.55807522  1  0  0.097243  0.103313  0  1.028203  0
C  C16  1  0.75176299  0.45906682  0.61507033  1  0  0.107008  0.187395  0  3.97981  0
C  C17  1  0.24822352  0.54090960  0.38493670  1  0  0.107009  0.187376  0  3.980277  0
C  C18  1  0.73988182  0.52855183  0.50023600  1  0  -0.002371  0.040501  0  3.983095  0
C  C19  1  0.26011205  0.47145373  0.49975268  1  0  -0.002274  0.040627  0  3.983948  0
C  C20  1  0.65857520  0.74730179  0.77432324  1  0  0.05291  0.108761  0  3.934272  0
C  C21  1  0.34143337  0.25270115  0.22567909  1  0  0.05291  0.108772  0  3.934241  0
C  C22  1  0.80585011  0.27271800  0.58789683  1  0  -0.098632  -0.17199  0  3.961528  0
C  C23  1  0.19413961  0.72727438  0.41210489  1  0  -0.098584  -0.171821  0  3.961689  0
C  C24  1  0.78539862  0.40972602  0.36248239  1  0  -0.086142  -0.107782  0  3.95317  0
C  C25  1  0.21458365  0.59025621  0.63750527  1  0  -0.086164  -0.107822  0  3.95337  0
C  C26  1  0.64149793  0.82315016  0.66596538  1  0  -0.089351  -0.125544  0  3.978553  0
C  C27  1  0.35851531  0.17686290  0.33404595  1  0  -0.089514  -0.125729  0  3.978342  0
C  C28  1  0.83724581  0.22849479  0.33850594  1  0  -0.092623  -0.073981  0  3.993905  0
C  C29  1  0.16273666  0.77148738  0.66148867  1  0  -0.092623  -0.073874  0  3.993588  0
C  C30  1  0.84638869  0.15999976  0.45172374  1  0  -0.086196  -0.053299  0  3.989519  0
C  C31  1  0.15358361  0.83999665  0.54825867  1  0  -0.086183  -0.053483  0  3.989768  0
C  C32  1  0.68213242  0.71412421  0.52947807  1  0  -0.062422  -0.059757  0  3.910738  0
C  C33  1  0.31785336  0.28589250  0.47052845  1  0  -0.062264  -0.059534  0  3.910493  0
Br  Br34  1  0.60355662  0.75021407  0.15171932  1  0  -0.210528  -0.348694  0  1.460369  0
Br  Br35  1  0.39646953  0.24980084  0.84828298  1  0  -0.210553  -0.348684  0  1.460253  0
Br  Br36  1  0.92155384  0.21373046  0.96969979  1  0  -0.205791  -0.314815  0  1.451709  0
Br  Br37  1  0.07850978  0.78628702  0.03028254  1  0  -0.2058  -0.314815  0  1.451647  0
N  N38  1  0.71096793  0.57321956  0.74987954  1  0  -0.305431  -0.212271  0  3.520659  0
N  N39  1  0.28903629  0.42677608  0.25012058  1  0  -0.305483  -0.21236  0  3.520631  0
