# generated using pymatgen
data_Ag2HC2S2N2Cl
_symmetry_space_group_name_H-M   'P 1'
_cell_length_a   3.88779326
_cell_length_b   11.13333073
_cell_length_c   15.32563701
_cell_angle_alpha   90.00004329
_cell_angle_beta   92.44641466
_cell_angle_gamma   90.00004276
_symmetry_Int_Tables_number   1
_chemical_formula_structural   Ag2HC2S2N2Cl
_chemical_formula_sum   'Ag8 H4 C8 S8 N8 Cl4'
_cell_volume   662.75162659
_cell_formula_units_Z   4
loop_
 _symmetry_equiv_pos_site_id
 _symmetry_equiv_pos_as_xyz
  1  'x, y, z'
loop_
 _atom_site_type_symbol
 _atom_site_label
 _atom_site_symmetry_multiplicity
 _atom_site_fract_x
 _atom_site_fract_y
 _atom_site_fract_z
 _atom_site_occupancy
 _atom_site_hle17_bader_spin_density
 _atom_site_hle17_ddec_charge
 _atom_site_hle17_ddec_spin_density
 _atom_site_hle17_ddec_sum_bond_order
 _atom_site_hle17_magmom
 _atom_site_hse06_10hf_bader_spin_density
 _atom_site_hse06_10hf_ddec_charge
 _atom_site_hse06_10hf_ddec_spin_density
 _atom_site_hse06_10hf_ddec_sum_bond_order
 _atom_site_hse06_10hf_magmom
 _atom_site_hse06_bader_spin_density
 _atom_site_hse06_ddec_charge
 _atom_site_hse06_ddec_spin_density
 _atom_site_hse06_ddec_sum_bond_order
 _atom_site_hse06_magmom
 _atom_site_pbe_bader_spin_density
 _atom_site_pbe_cm5_charge
 _atom_site_pbe_ddec_charge
 _atom_site_pbe_ddec_spin_density
 _atom_site_pbe_ddec_sum_bond_order
 _atom_site_pbe_magmom
Ag  Ag0  1  0.38616942  0.20654836  0.22409839  1  0  0.455218  0  1.734519  0  0  0.33523  0  2.250894  0  0  0.356198  0  2.20521  0  0  0.326326  0.320818  0  2.282648  0
Ag  Ag1  1  0.61383090  0.70654793  0.27590179  1  0  0.455264  0  1.734512  0  0  0.335275  0  2.250883  0  0  0.356233  0  2.205204  0  0  0.326341  0.320855  0  2.282627  0
Ag  Ag2  1  0.61383053  0.79345189  0.77590162  1  0  0.455255  0  1.734523  0  0  0.335264  0  2.250886  0  0  0.356225  0  2.205209  0  0  0.326329  0.320851  0  2.282633  0
Ag  Ag3  1  0.38616648  0.29345322  0.72409820  1  0  0.455281  0  1.734508  0  0  0.335287  0  2.25087  0  0  0.356247  0  2.205194  0  0  0.326347  0.32087  0  2.282622  0
Ag  Ag4  1  0.07562866  0.00888778  0.40331412  1  0  0.427067  0  1.798504  0  0  0.317741  0  2.303168  0  0  0.337476  0  2.258543  0  0  0.351423  0.304716  0  2.333843  0
Ag  Ag5  1  0.92436888  0.50888745  0.09668519  1  0  0.427095  0  1.798462  0  0  0.317769  0  2.303141  0  0  0.33751  0  2.258507  0  0  0.351432  0.304748  0  2.333818  0
Ag  Ag6  1  0.92436869  0.99111247  0.59668522  1  0  0.427093  0  1.798474  0  0  0.317744  0  2.303183  0  0  0.337502  0  2.258515  0  0  0.351434  0.304723  0  2.333864  0
Ag  Ag7  1  0.07563108  0.49111280  0.90331482  1  0  0.427083  0  1.798501  0  0  0.31775  0  2.303186  0  0  0.337492  0  2.258551  0  0  0.351421  0.304728  0  2.333862  0
H  H8  1  0.70002266  0.07812780  0.85682010  1  0  0.132746  0  0.973801  0  0  0.138122  0  1.041974  0  0  0.141138  0  1.039582  0  0  0.109764  0.135826  0  1.043867  0
H  H9  1  0.29997680  0.57812721  0.64318083  1  0  0.132727  0  0.973791  0  0  0.138106  0  1.041967  0  0  0.14112  0  1.039576  0  0  0.109766  0.135809  0  1.043857  0
H  H10  1  0.29997476  0.92187335  0.14318055  1  0  0.132739  0  0.973784  0  0  0.138118  0  1.041958  0  0  0.141133  0  1.039567  0  0  0.109768  0.135821  0  1.04385  0
H  H11  1  0.70002576  0.42187304  0.35681985  1  0  0.132742  0  0.973794  0  0  0.138128  0  1.041954  0  0  0.141143  0  1.039563  0  0  0.109771  0.13583  0  1.043847  0
C  C12  1  0.44214821  0.28199298  0.01375883  1  0  0.132399  0  3.84313  0  0  0.121174  0  4.133957  0  0  0.135083  0  4.151762  0  0  0.100548  0.112073  0  4.121453  0
C  C13  1  0.55785218  0.78199347  0.48624143  1  0  0.132379  0  3.843045  0  0  0.121141  0  4.133892  0  0  0.135049  0  4.1517  0  0  0.10052  0.112042  0  4.121378  0
C  C14  1  0.55784920  0.71800548  0.98624182  1  0  0.132449  0  3.842987  0  0  0.121219  0  4.133848  0  0  0.135129  0  4.151654  0  0  0.100565  0.112117  0  4.12134  0
C  C15  1  0.44215035  0.21800589  0.51375860  1  0  0.132381  0  3.84307  0  0  0.12117  0  4.1339  0  0  0.135077  0  4.151709  0  0  0.100537  0.112069  0  4.121386  0
C  C16  1  0.60352054  0.14814546  0.89923527  1  0  0.01735  0  3.612601  0  0  -0.022342  0  3.899314  0  0  -0.012937  0  3.909436  0  0  0.043471  -0.029034  0  3.892931  0
C  C17  1  0.39647895  0.64814581  0.60076507  1  0  0.017358  0  3.612654  0  0  -0.022344  0  3.899389  0  0  -0.012939  0  3.909511  0  0  0.043444  -0.029039  0  3.892998  0
C  C18  1  0.39647166  0.85185568  0.10076402  1  0  0.017349  0  3.612486  0  0  -0.022336  0  3.89921  0  0  -0.012933  0  3.909334  0  0  0.043419  -0.029031  0  3.892824  0
C  C19  1  0.60353134  0.35185534  0.39923567  1  0  0.017362  0  3.612565  0  0  -0.022311  0  3.899305  0  0  -0.012908  0  3.909428  0  0  0.043448  -0.029005  0  3.892917  0
S  S20  1  0.38436564  0.35870676  0.10910420  1  0  -0.354119  0  2.91001  0  0  -0.295233  0  3.440946  0  0  -0.31306  0  3.415534  0  0  -0.218126  -0.283598  0  3.458356  0
S  S21  1  0.61563483  0.85870726  0.39089614  1  0  -0.354121  0  2.910027  0  0  -0.29523  0  3.440967  0  0  -0.313054  0  3.415556  0  0  -0.218122  -0.283588  0  3.458348  0
S  S22  1  0.61563429  0.64129259  0.89089516  1  0  -0.354152  0  2.91  0  0  -0.295267  0  3.440941  0  0  -0.313091  0  3.415525  0  0  -0.218143  -0.283635  0  3.458349  0
S  S23  1  0.38436516  0.14129299  0.60910453  1  0  -0.354134  0  2.910018  0  0  -0.29525  0  3.440945  0  0  -0.313077  0  3.41553  0  0  -0.218136  -0.283623  0  3.458363  0
S  S24  1  0.65956433  0.14594299  0.01103589  1  0  0.1276  0  2.615888  0  0  0.137431  0  2.968648  0  0  0.134749  0  2.970588  0  0  0.109315  0.139663  0  2.96539  0
S  S25  1  0.34043594  0.64594339  0.48896423  1  0  0.127629  0  2.615866  0  0  0.13747  0  2.968632  0  0  0.13479  0  2.970571  0  0  0.109339  0.139699  0  2.965363  0
S  S26  1  0.34044329  0.85405726  0.98896287  1  0  0.127577  0  2.615848  0  0  0.137408  0  2.968626  0  0  0.134727  0  2.970564  0  0  0.109308  0.139637  0  2.965365  0
S  S27  1  0.65956408  0.35405686  0.51103708  1  0  0.127598  0  2.615863  0  0  0.137433  0  2.968623  0  0  0.134751  0  2.970564  0  0  0.109323  0.139665  0  2.965353  0
N  N28  1  0.34093297  0.31873318  0.93410688  1  0  -0.237007  0  3.265902  0  0  -0.174207  0  3.564823  0  0  -0.189276  0  3.579413  0  0  -0.262617  -0.164814  0  3.555613  0
N  N29  1  0.65906668  0.81873362  0.56589364  1  0  -0.236981  0  3.265841  0  0  -0.174164  0  3.564756  0  0  -0.189234  0  3.579349  0  0  -0.262585  -0.164773  0  3.555543  0
N  N30  1  0.65906445  0.68126618  0.06589377  1  0  -0.237005  0  3.265828  0  0  -0.174209  0  3.564775  0  0  -0.189275  0  3.579358  0  0  -0.262593  -0.164816  0  3.555559  0
N  N31  1  0.34093328  0.18126752  0.43410637  1  0  -0.236999  0  3.265852  0  0  -0.17418  0  3.564781  0  0  -0.189246  0  3.579367  0  0  -0.262586  -0.164786  0  3.555562  0
N  N32  1  0.43599991  0.24256102  0.86953830  1  0  -0.139773  0  3.245432  0  0  -0.084892  0  3.544127  0  0  -0.094685  0  3.557561  0  0  -0.240078  -0.078486  0  3.535737  0
N  N33  1  0.56399963  0.74256144  0.63046149  1  0  -0.139783  0  3.245533  0  0  -0.084914  0  3.544242  0  0  -0.09471  0  3.55768  0  0  -0.240085  -0.078511  0  3.535849  0
N  N34  1  0.56399490  0.75743923  0.13046167  1  0  -0.139748  0  3.245394  0  0  -0.084888  0  3.54412  0  0  -0.09468  0  3.557555  0  0  -0.240059  -0.078483  0  3.535726  0
N  N35  1  0.43600547  0.25743971  0.36953856  1  0  -0.139715  0  3.24544  0  0  -0.084916  0  3.544226  0  0  -0.09471  0  3.557661  0  0  -0.240079  -0.078513  0  3.535837  0
Cl  Cl36  1  0.89831789  0.04791759  0.22733774  1  0  -0.561536  0  1.210929  0  0  -0.473053  0  1.590249  0  0  -0.494718  0  1.559271  0  0  -0.320033  -0.457185  0  1.611593  0
Cl  Cl37  1  0.10167968  0.54791694  0.27266161  1  0  -0.561564  0  1.21093  0  0  -0.473091  0  1.590264  0  0  -0.494752  0  1.559283  0  0  -0.32004  -0.457222  0  1.611605  0
Cl  Cl38  1  0.10168206  0.95208266  0.77266227  1  0  -0.561548  0  1.210927  0  0  -0.473069  0  1.590251  0  0  -0.494736  0  1.559273  0  0  -0.320031  -0.457198  0  1.611593  0
Cl  Cl39  1  0.89832028  0.45208331  0.72733840  1  0  -0.561556  0  1.210941  0  0  -0.473084  0  1.590278  0  0  -0.494747  0  1.559299  0  0  -0.320043  -0.457217  0  1.611618  0
