# generated using pymatgen
data_CuH4C6BrN
_symmetry_space_group_name_H-M   'P 1'
_cell_length_a   3.86106558
_cell_length_b   8.70322148
_cell_length_c   9.32581773
_cell_angle_alpha   67.54535437
_cell_angle_beta   87.95167856
_cell_angle_gamma   78.94614328
_symmetry_Int_Tables_number   1
_chemical_formula_structural   CuH4C6BrN
_chemical_formula_sum   'Cu2 H8 C12 Br2 N2'
_cell_volume   284.00596688
_cell_formula_units_Z   2
loop_
 _symmetry_equiv_pos_site_id
 _symmetry_equiv_pos_as_xyz
  1  'x, y, z'
loop_
 _atom_site_type_symbol
 _atom_site_label
 _atom_site_symmetry_multiplicity
 _atom_site_fract_x
 _atom_site_fract_y
 _atom_site_fract_z
 _atom_site_occupancy
 _atom_site_pbe_bader_spin_density
 _atom_site_pbe_cm5_charge
 _atom_site_pbe_ddec_charge
 _atom_site_pbe_ddec_spin_density
 _atom_site_pbe_ddec_sum_bond_order
 _atom_site_pbe_magmom
Cu  Cu0  1  0.68938987  0.44605979  0.16270687  1  0  0.350289  0.32795  0  2.37316  0
Cu  Cu1  1  0.31056820  0.55392205  0.83729840  1  0  0.350311  0.328001  0  2.373114  0
H  H2  1  0.05323552  0.20696946  0.38899796  1  0  0.085604  0.098446  0  1.083338  0
H  H3  1  0.94676993  0.79303538  0.61100087  1  0  0.085619  0.098444  0  1.083405  0
H  H4  1  0.32645960  0.98752385  0.63967724  1  0  0.094014  0.100461  0  1.022182  0
H  H5  1  0.67354421  0.01248475  0.36032459  1  0  0.094021  0.10049  0  1.022147  0
H  H6  1  0.17735683  0.02278066  0.88752996  1  0  0.096419  0.105456  0  1.010244  0
H  H7  1  0.82265989  0.97722798  0.11247385  1  0  0.096382  0.105366  0  1.010329  0
H  H8  1  0.73960993  0.27365035  0.88799232  1  0  0.081267  0.097384  0  1.090654  0
H  H9  1  0.26038615  0.72635824  0.11200745  1  0  0.081257  0.09742  0  1.090642  0
C  C10  1  0.73707095  0.36361171  0.49535849  1  0  0.10548  0.164883  0  3.970645  0
C  C11  1  0.26292423  0.63638676  0.50464162  1  0  0.105484  0.164919  0  3.97084  0
C  C12  1  0.98400647  0.21843646  0.49936578  1  0  -0.098282  -0.16511  0  3.961176  0
C  C13  1  0.01600724  0.78155436  0.50064857  1  0  -0.098301  -0.165113  0  3.960949  0
C  C14  1  0.13489770  0.09808499  0.63773354  1  0  -0.084804  -0.04847  0  3.968789  0
C  C15  1  0.86510779  0.90191987  0.36226314  1  0  -0.084796  -0.048523  0  3.96849  0
C  C16  1  0.04836673  0.11767794  0.77951957  1  0  -0.085551  -0.051547  0  3.968189  0
C  C17  1  0.95164700  0.88232565  0.22048067  1  0  -0.085562  -0.051443  0  3.968304  0
C  C18  1  0.80856573  0.25625538  0.78009516  1  0  -0.097184  -0.16169  0  3.971213  0
C  C19  1  0.19144081  0.74375332  0.21989695  1  0  -0.097143  -0.161722  0  3.971039  0
C  C20  1  0.64465180  0.38214941  0.63975586  1  0  0.10867  0.169648  0  3.96741  0
C  C21  1  0.35534224  0.61785154  0.36024876  1  0  0.108661  0.169592  0  3.967297  0
Br  Br22  1  0.27040897  0.29883874  0.09949168  1  0  -0.204739  -0.372702  0  2.001832  0
Br  Br23  1  0.72960779  0.70113324  0.90050776  1  0  -0.204811  -0.372782  0  2.00188  0
N  N24  1  0.59330838  0.48192517  0.35627321  1  0  -0.351144  -0.264645  0  3.5872  0
N  N25  1  0.40668015  0.51807715  0.64371705  1  0  -0.351161  -0.264714  0  3.587344  0
