# generated using pymatgen
data_AgH4C6(NO)3
_symmetry_space_group_name_H-M   'P 1'
_cell_length_a   5.03980936
_cell_length_b   6.21102050
_cell_length_c   11.02221044
_cell_angle_alpha   94.14480313
_cell_angle_beta   89.99682781
_cell_angle_gamma   93.43894682
_symmetry_Int_Tables_number   1
_chemical_formula_structural   AgH4C6(NO)3
_chemical_formula_sum   'Ag2 H8 C12 N6 O6'
_cell_volume   343.49597786
_cell_formula_units_Z   2
loop_
 _symmetry_equiv_pos_site_id
 _symmetry_equiv_pos_as_xyz
  1  'x, y, z'
loop_
 _atom_site_type_symbol
 _atom_site_label
 _atom_site_symmetry_multiplicity
 _atom_site_fract_x
 _atom_site_fract_y
 _atom_site_fract_z
 _atom_site_occupancy
 _atom_site_pbe_bader_charge
 _atom_site_pbe_bader_spin_density
 _atom_site_pbe_cm5_charge
 _atom_site_pbe_ddec_charge
 _atom_site_pbe_ddec_spin_density
 _atom_site_pbe_ddec_sum_bond_order
 _atom_site_pbe_magmom
Ag  Ag0  1  0.82214216  0.17239382  0.46945769  1  0.631848  0  0.441846  0.444977  0  1.874488  0
Ag  Ag1  1  0.17784676  0.82760748  0.53054066  1  0.631898  0  0.441839  0.444957  0  1.874441  0
H  H2  1  0.97026477  0.13563220  0.17323113  1  0.141371  0  0.119237  0.102099  0  1.024605  0
H  H3  1  0.02973941  0.86436102  0.82676590  1  0.141156  0  0.119229  0.102103  0  1.024593  0
H  H4  1  0.28690457  0.03216050  0.33218911  1  0.13275  0  0.108292  0.080114  0  1.080619  0
H  H5  1  0.71309482  0.96784727  0.66781218  1  0.132755  0  0.108273  0.080102  0  1.080578  0
H  H6  1  0.28926223  0.92149008  0.97990300  1  0.503444  0  0.296379  0.309419  0  0.989753  0
H  H7  1  0.71072725  0.07851769  0.02009925  1  0.503475  0  0.296384  0.309463  0  0.989729  0
H  H8  1  0.09156905  0.69936492  0.03069827  1  0.510581  0  0.303382  0.298071  0  1.005421  0
H  H9  1  0.90843286  0.30062507  0.96929683  1  0.510634  0  0.303399  0.298089  0  1.005404  0
C  C10  1  0.54542445  0.51627744  0.28656206  1  0.566562  0  0.135883  0.086768  0  3.869702  0
C  C11  1  0.45456774  0.48371579  0.71343141  1  0.566495  0  0.136012  0.086889  0  3.869637  0
C  C12  1  0.39651391  0.55692546  0.18303667  1  0.544533  0  0.127985  0.059242  0  3.909907  0
C  C13  1  0.60347882  0.44307423  0.81695979  1  0.544055  0  0.127885  0.059147  0  3.909535  0
C  C14  1  0.14228994  0.24250205  0.20089514  1  0.461702  0  0.049631  0.050472  0  3.941308  0
C  C15  1  0.85772287  0.75750087  0.79910135  1  0.461925  0  0.049588  0.05042  0  3.941338  0
C  C16  1  0.30892289  0.18869720  0.29354693  1  0.561917  0  0.046132  0.05237  0  3.943946  0
C  C17  1  0.69107796  0.81130410  0.70645227  1  0.561915  0  0.046173  0.0524  0  3.94402  0
C  C18  1  0.72937980  0.68157075  0.35666546  1  1.623343  0  0.208586  0.5484  0  4.225905  0
C  C19  1  0.27062909  0.31843217  0.64333286  1  1.623424  0  0.208547  0.548276  0  4.226025  0
C  C20  1  0.45817189  0.74902728  0.11005885  1  1.456164  0  0.241157  0.519739  0  4.137862  0
C  C21  1  0.54182930  0.25097887  0.88993965  1  1.456396  0  0.241167  0.519741  0  4.137803  0
N  N22  1  0.50882244  0.32503317  0.33619986  1  -1.207802  0  -0.302128  -0.198205  0  3.434429  0
N  N23  1  0.49117727  0.67497783  0.66380519  1  -1.207871  0  -0.302187  -0.198224  0  3.434512  0
N  N24  1  0.19351958  0.42110065  0.14271864  1  -1.191348  0  -0.288285  -0.216629  0  3.3452  0
N  N25  1  0.80649368  0.57890711  0.85728168  1  -1.190903  0  -0.288226  -0.216583  0  3.344789  0
N  N26  1  0.26521202  0.79274331  0.03420228  1  -1.311055  0  -0.561482  -0.60982  0  3.382603  0
N  N27  1  0.73478821  0.20724990  0.96579568  1  -1.311103  0  -0.561476  -0.60981  0  3.382528  0
O  O28  1  0.95836035  0.62676009  0.38357118  1  -1.122049  0  -0.31103  -0.496006  0  2.394123  0
O  O29  1  0.04164235  0.37323960  0.61642704  1  -1.121975  0  -0.311029  -0.495969  0  2.39405  0
O  O30  1  0.62308493  0.85613823  0.39046743  1  -1.133903  0  -0.314651  -0.521691  0  2.472545  0
O  O31  1  0.37691624  0.14386793  0.60953015  1  -1.134107  0  -0.314639  -0.521626  0  2.472603  0
O  O32  1  0.67809206  0.85484717  0.12058292  1  -1.16802  0  -0.300942  -0.509347  0  2.175506  0
O  O33  1  0.32189374  0.14516384  0.87942130  1  -1.168207  0  -0.30093  -0.509349  0  2.175449  0
