# generated using pymatgen
data_CaH2(CO2)2
_symmetry_space_group_name_H-M   'P 1'
_cell_length_a   6.79027199
_cell_length_b   6.79019093
_cell_length_c   9.38471897
_cell_angle_alpha   90.00354180
_cell_angle_beta   89.99877732
_cell_angle_gamma   90.00359738
_symmetry_Int_Tables_number   1
_chemical_formula_structural   CaH2(CO2)2
_chemical_formula_sum   'Ca4 H8 C8 O16'
_cell_volume   432.70351891
_cell_formula_units_Z   4
loop_
 _symmetry_equiv_pos_site_id
 _symmetry_equiv_pos_as_xyz
  1  'x, y, z'
loop_
 _atom_site_type_symbol
 _atom_site_label
 _atom_site_symmetry_multiplicity
 _atom_site_fract_x
 _atom_site_fract_y
 _atom_site_fract_z
 _atom_site_occupancy
 _atom_site_hle17_bader_spin_density
 _atom_site_hle17_ddec_charge
 _atom_site_hle17_ddec_spin_density
 _atom_site_hle17_ddec_sum_bond_order
 _atom_site_hle17_magmom
 _atom_site_hse06_10hf_bader_spin_density
 _atom_site_hse06_10hf_ddec_charge
 _atom_site_hse06_10hf_ddec_spin_density
 _atom_site_hse06_10hf_ddec_sum_bond_order
 _atom_site_hse06_10hf_magmom
 _atom_site_hse06_bader_spin_density
 _atom_site_hse06_ddec_charge
 _atom_site_hse06_ddec_spin_density
 _atom_site_hse06_ddec_sum_bond_order
 _atom_site_hse06_magmom
 _atom_site_pbe_bader_spin_density
 _atom_site_pbe_cm5_charge
 _atom_site_pbe_ddec_charge
 _atom_site_pbe_ddec_spin_density
 _atom_site_pbe_ddec_sum_bond_order
 _atom_site_pbe_magmom
Ca  Ca0  1  0.78805060  0.78806444  0.00001886  1  0  1.569671  0  1.106006  0  0  1.430889  0  1.470432  0  0  1.477773  0  1.421751  0  0  0.910013  1.395616  0  1.504478  0
Ca  Ca1  1  0.71185877  0.28811747  0.75000212  1  0  1.569803  0  1.104532  0  0  1.430768  0  1.469045  0  0  1.47795  0  1.419881  0  0  0.909439  1.395363  0  1.503302  0
Ca  Ca2  1  0.28816167  0.71187469  0.25001992  1  0  1.569858  0  1.104444  0  0  1.430696  0  1.469189  0  0  1.477979  0  1.419834  0  0  0.909459  1.395292  0  1.503432  0
Ca  Ca3  1  0.21192141  0.21193107  0.50000845  1  0  1.569663  0  1.10616  0  0  1.430883  0  1.470607  0  0  1.477815  0  1.421853  0  0  0.910065  1.395614  0  1.504648  0
H  H4  1  0.34150034  0.86288201  0.81759445  1  0  0.008023  0  0.943112  0  0  0.016796  0  1.016256  0  0  0.017161  0  1.011745  0  0  0.124983  0.016288  0  1.019865  0
H  H5  1  0.63707628  0.84168960  0.56787729  1  0  0.00825  0  0.943277  0  0  0.016956  0  1.016338  0  0  0.017316  0  1.011833  0  0  0.125316  0.016475  0  1.019913  0
H  H6  1  0.36292902  0.15827351  0.06786106  1  0  0.008331  0  0.943575  0  0  0.017024  0  1.016654  0  0  0.017383  0  1.012144  0  0  0.125372  0.016542  0  1.020235  0
H  H7  1  0.84171172  0.63710384  0.43212291  1  0  0.008326  0  0.94321  0  0  0.017047  0  1.016252  0  0  0.017404  0  1.011749  0  0  0.125342  0.016565  0  1.019831  0
H  H8  1  0.15829439  0.36295125  0.93213487  1  0  0.008324  0  0.943305  0  0  0.017002  0  1.016419  0  0  0.017365  0  1.011913  0  0  0.12529  0.016514  0  1.02  0
H  H9  1  0.65850333  0.13711307  0.31757815  1  0  0.007821  0  0.943266  0  0  0.016632  0  1.016401  0  0  0.016999  0  1.011884  0  0  0.124966  0.016123  0  1.020018  0
H  H10  1  0.86288798  0.34150700  0.18241990  1  0  0.007763  0  0.943132  0  0  0.01662  0  1.01623  0  0  0.016986  0  1.011716  0  0  0.124913  0.016102  0  1.019843  0
H  H11  1  0.13708884  0.65854558  0.68241643  1  0  0.007837  0  0.943271  0  0  0.016727  0  1.016302  0  0  0.017093  0  1.011787  0  0  0.125033  0.016217  0  1.019907  0
C  C12  1  0.30016879  0.80899586  0.92484452  1  0  0.618467  0  3.914644  0  0  0.545613  0  4.224508  0  0  0.579656  0  4.21511  0  0  0.175494  0.522179  0  4.230596  0
C  C13  1  0.69106679  0.80032745  0.67505127  1  0  0.618693  0  3.914379  0  0  0.545834  0  4.224398  0  0  0.579884  0  4.214973  0  0  0.175433  0.522389  0  4.230524  0
C  C14  1  0.30895443  0.19964644  0.17502169  1  0  0.618268  0  3.914741  0  0  0.545412  0  4.224706  0  0  0.579466  0  4.21529  0  0  0.175137  0.521962  0  4.230842  0
C  C15  1  0.80038827  0.69109196  0.32493420  1  0  0.618502  0  3.915  0  0  0.545637  0  4.224992  0  0  0.579687  0  4.215575  0  0  0.175359  0.5222  0  4.231102  0
C  C16  1  0.19963286  0.30893911  0.82495062  1  0  0.61829  0  3.915324  0  0  0.545443  0  4.225284  0  0  0.579487  0  4.215874  0  0  0.175315  0.522015  0  4.23139  0
C  C17  1  0.69980808  0.19097170  0.42482784  1  0  0.61904  0  3.914386  0  0  0.546177  0  4.224228  0  0  0.58022  0  4.214816  0  0  0.175608  0.522741  0  4.230323  0
C  C18  1  0.80900386  0.30018223  0.07515566  1  0  0.618858  0  3.914783  0  0  0.545942  0  4.22465  0  0  0.579983  0  4.215237  0  0  0.175604  0.522522  0  4.230725  0
C  C19  1  0.19098061  0.69981834  0.57516385  1  0  0.618548  0  3.914679  0  0  0.545606  0  4.22459  0  0  0.579647  0  4.215197  0  0  0.175383  0.522178  0  4.230675  0
O  O20  1  0.43855749  0.77916921  0.01410804  1  0  -0.728247  0  2.051491  0  0  -0.657917  0  2.316423  0  0  -0.687991  0  2.305115  0  0  -0.387968  -0.636231  0  2.32336  0
O  O21  1  0.72080055  0.93862292  0.76440999  1  0  -0.728919  0  2.052003  0  0  -0.658593  0  2.317017  0  0  -0.688658  0  2.305689  0  0  -0.388496  -0.636905  0  2.323981  0
O  O22  1  0.27920620  0.06140142  0.26439715  1  0  -0.728702  0  2.052114  0  0  -0.658342  0  2.317134  0  0  -0.688432  0  2.305802  0  0  -0.388375  -0.636658  0  2.324098  0
O  O23  1  0.93868250  0.72086184  0.23561840  1  0  -0.728804  0  2.052749  0  0  -0.658535  0  2.317904  0  0  -0.688612  0  2.306565  0  0  -0.38855  -0.636847  0  2.324857  0
O  O24  1  0.06136488  0.27917915  0.73562281  1  0  -0.728602  0  2.05276  0  0  -0.658282  0  2.317783  0  0  -0.688348  0  2.306464  0  0  -0.388391  -0.636605  0  2.324742  0
O  O25  1  0.56140821  0.22077157  0.51408315  1  0  -0.728427  0  2.051493  0  0  -0.658135  0  2.316426  0  0  -0.688201  0  2.305127  0  0  -0.387966  -0.636443  0  2.323361  0
O  O26  1  0.77919744  0.43858067  0.98591716  1  0  -0.728374  0  2.051686  0  0  -0.658049  0  2.316655  0  0  -0.688106  0  2.30535  0  0  -0.387952  -0.63636  0  2.323584  0
O  O27  1  0.22079232  0.56141429  0.48593255  1  0  -0.728072  0  2.05181  0  0  -0.657768  0  2.316794  0  0  -0.687844  0  2.305496  0  0  -0.387823  -0.63608  0  2.323723  0
O  O28  1  0.12051496  0.78281690  0.95249131  1  0  -0.683061  0  2.00747  0  0  -0.619853  0  2.270229  0  0  -0.647698  0  2.258218  0  0  -0.367382  -0.599947  0  2.277772  0
O  O29  1  0.71734098  0.62072038  0.70271443  1  0  -0.682967  0  2.007419  0  0  -0.619642  0  2.270091  0  0  -0.647521  0  2.258065  0  0  -0.367114  -0.599719  0  2.277658  0
O  O30  1  0.28267941  0.37927357  0.20269103  1  0  -0.682796  0  2.007242  0  0  -0.619449  0  2.269937  0  0  -0.647356  0  2.257896  0  0  -0.366987  -0.599527  0  2.277508  0
O  O31  1  0.62077520  0.71731266  0.29723685  1  0  -0.682944  0  2.007323  0  0  -0.619579  0  2.270015  0  0  -0.647484  0  2.257974  0  0  -0.367083  -0.599658  0  2.277583  0
O  O32  1  0.37924970  0.28269539  0.79727178  1  0  -0.682865  0  2.007511  0  0  -0.619578  0  2.270275  0  0  -0.647468  0  2.258265  0  0  -0.36714  -0.599659  0  2.277839  0
O  O33  1  0.87945225  0.21715601  0.45250077  1  0  -0.683301  0  2.007292  0  0  -0.620117  0  2.270048  0  0  -0.647966  0  2.258028  0  0  -0.367447  -0.600209  0  2.277599  0
O  O34  1  0.78280971  0.12054166  0.04750802  1  0  -0.683062  0  2.00754  0  0  -0.619895  0  2.270403  0  0  -0.647739  0  2.258388  0  0  -0.367396  -0.599984  0  2.277942  0
O  O35  1  0.21718591  0.87946681  0.54749283  1  0  -0.683196  0  2.007198  0  0  -0.619968  0  2.269957  0  0  -0.64783  0  2.257957  0  0  -0.367455  -0.600063  0  2.277504  0
