# generated using pymatgen
data_NiH4(C2O3)2
_symmetry_space_group_name_H-M   'P 1'
_cell_length_a   4.91207182
_cell_length_b   7.77576340
_cell_length_c   7.77573993
_cell_angle_alpha   72.13876491
_cell_angle_beta   71.58980409
_cell_angle_gamma   71.58929202
_symmetry_Int_Tables_number   1
_chemical_formula_structural   NiH4(C2O3)2
_chemical_formula_sum   'Ni2 H8 C8 O12'
_cell_volume   260.21008526
_cell_formula_units_Z   2
loop_
 _symmetry_equiv_pos_site_id
 _symmetry_equiv_pos_as_xyz
  1  'x, y, z'
loop_
 _atom_site_type_symbol
 _atom_site_label
 _atom_site_symmetry_multiplicity
 _atom_site_fract_x
 _atom_site_fract_y
 _atom_site_fract_z
 _atom_site_occupancy
 _atom_site_hle17_ddec_charge
 _atom_site_hle17_ddec_spin_density
 _atom_site_hle17_ddec_sum_bond_order
 _atom_site_hle17_magmom
 _atom_site_hse06_10hf_ddec_charge
 _atom_site_hse06_10hf_ddec_spin_density
 _atom_site_hse06_10hf_ddec_sum_bond_order
 _atom_site_hse06_10hf_magmom
 _atom_site_hse06_ddec_charge
 _atom_site_hse06_ddec_spin_density
 _atom_site_hse06_ddec_sum_bond_order
 _atom_site_hse06_magmom
 _atom_site_pbe_cm5_charge
 _atom_site_pbe_ddec_charge
 _atom_site_pbe_ddec_spin_density
 _atom_site_pbe_ddec_sum_bond_order
 _atom_site_pbe_magmom
Ni  Ni0  1  0.71339983  0.28747866  0.28772605  1  0.966461  1.7581  1.772948  1.534  0.977199  1.830146  2.151769  1.667  1.062838  1.880332  2.090623  1.751  0.626562  0.898763  1.782025  2.214781  1.59
Ni  Ni1  1  0.28659707  0.71227552  0.71252230  1  0.966458  1.758036  1.772515  1.534  0.977241  1.830128  2.151282  1.667  1.062939  1.880346  2.090139  1.751  0.626631  0.898786  1.781993  2.214397  1.59
H  H2  1  0.38750922  0.06546163  0.78842926  1  0.105515  0.00048  0.924158  0.001  0.110209  0.000601  0.987766  0.001  0.113487  0.000383  0.985315  0.001  0.125661  0.107605  0.00082  0.990004  0.001
H  H3  1  0.24276946  0.93610659  0.21160602  1  0.106299  0.000496  0.926099  0.001  0.10989  0.000605  0.990775  0.001  0.113209  0.000386  0.9883  0.001  0.125653  0.107288  0.000823  0.992978  0.001
H  H4  1  0.61248816  0.21157781  0.93453805  1  0.105552  0.000479  0.92416  0.001  0.110242  0.0006  0.987766  0.001  0.113523  0.000383  0.985313  0.001  0.125678  0.107634  0.00082  0.990006  0.001
H  H5  1  0.75723478  0.78839136  0.06388916  1  0.106299  0.000496  0.926045  0.001  0.109823  0.000605  0.990793  0.001  0.11314  0.000386  0.988319  0.001  0.125639  0.107224  0.000823  0.992993  0.001
H  H6  1  0.24527097  0.22076684  0.53196851  1  0.385733  -0.000634  0.868879  -0.001  0.363458  -5.5e-05  0.937916  0.0  0.373678  -0.000253  0.927278  0.0  0.312639  0.355981  0.000157  0.945295  0.0
H  H7  1  0.99838729  0.78047806  0.46730237  1  0.384858  -0.000638  0.869007  -0.001  0.363145  -4.9e-05  0.937094  0.0  0.373201  -0.00025  0.926706  0.0  0.31331  0.355776  0.000165  0.944361  0.0
H  H8  1  0.75472949  0.46803703  0.77922802  1  0.385708  -0.000635  0.868892  -0.001  0.363442  -5.6e-05  0.937915  0.0  0.373661  -0.000254  0.927282  0.0  0.312631  0.355969  0.000157  0.945286  0.0
H  H9  1  0.00161448  0.53269545  0.21952111  1  0.384892  -0.000638  0.869017  -0.001  0.363171  -4.9e-05  0.937119  0.0  0.373227  -0.000249  0.926727  0.0  0.313301  0.355795  0.000166  0.944406  0.0
C  C10  1  0.83009474  0.07269818  0.63770393  1  0.641035  -0.008935  3.842676  -0.008  0.591299  0.000763  4.158701  0.001  0.629918  6.5e-05  4.148476  0.0  0.213895  0.563161  0.001417  4.164144  0.001
C  C11  1  0.54288934  0.92637014  0.36276594  1  0.640934  -0.008658  3.837402  -0.007  0.591202  0.00093  4.154067  0.001  0.629817  0.000215  4.143756  0.001  0.213713  0.563058  0.001596  4.159547  0.001
C  C12  1  0.16990983  0.36231701  0.92728269  1  0.64089  -0.008944  3.842575  -0.008  0.591321  0.000762  4.158389  0.001  0.629942  6.3e-05  4.148163  0.0  0.214002  0.563188  0.001414  4.163829  0.001
C  C13  1  0.45710153  0.63724827  0.07361931  1  0.640942  -0.008651  3.837624  -0.007  0.59133  0.00093  4.154119  0.001  0.629942  0.000216  4.143808  0.001  0.213825  0.563191  0.001598  4.15959  0.001
C  C14  1  0.50795386  0.17237415  0.70279195  1  0.059046  0.004934  3.57412  0.006  0.032786  0.003511  3.821436  0.004  0.034094  0.002077  3.82729  0.002  -0.002234  0.031453  0.005068  3.817955  0.005
C  C15  1  0.38404130  0.82820163  0.29689134  1  0.057866  0.004836  3.57441  0.006  0.032684  0.003488  3.82083  0.003  0.034016  0.002064  3.82672  0.002  -0.002722  0.031335  0.005032  3.817371  0.005
C  C16  1  0.49204561  0.29721090  0.82762431  1  0.059094  0.004933  3.57415  0.006  0.032808  0.00351  3.821404  0.004  0.034125  0.002077  3.827245  0.002  -0.00227  0.031483  0.005067  3.81791  0.005
C  C17  1  0.61595768  0.70310525  0.17180188  1  0.057882  0.004836  3.57436  0.006  0.032768  0.003488  3.820715  0.003  0.034099  0.002064  3.826603  0.002  -0.00272  0.031419  0.005032  3.817253  0.005
O  O18  1  0.97716680  0.13683030  0.47394699  1  -0.614897  0.038486  2.095507  0.067  -0.577698  0.023987  2.363909  0.043  -0.613409  0.017241  2.3527  0.033  -0.300856  -0.549006  0.030225  2.370369  0.051
O  O19  1  0.58535968  0.86358101  0.52769670  1  -0.613161  0.039108  2.095733  0.068  -0.577197  0.024342  2.365795  0.043  -0.61287  0.017515  2.354517  0.033  -0.300622  -0.548463  0.030629  2.372281  0.052
O  O20  1  0.02283070  0.52604609  0.86317105  1  -0.614772  0.038473  2.095954  0.067  -0.57765  0.023982  2.364263  0.043  -0.613364  0.017237  2.353061  0.033  -0.30087  -0.548994  0.030215  2.370768  0.051
O  O21  1  0.41463856  0.47229159  0.13643051  1  -0.613362  0.039121  2.095324  0.068  -0.577424  0.024347  2.365429  0.043  -0.61309  0.017519  2.354138  0.033  -0.300741  -0.548682  0.030638  2.371892  0.052
O  O22  1  0.93577988  0.93710448  0.75576650  1  -0.559142  0.052912  2.092695  0.09  -0.537444  0.031394  2.375546  0.055  -0.573846  0.022072  2.364859  0.041  -0.293307  -0.507863  0.040522  2.382177  0.067
O  O23  1  0.63690293  0.05989785  0.24423194  1  -0.559938  0.052207  2.08278  0.089  -0.538641  0.030875  2.365736  0.054  -0.574979  0.021627  2.355151  0.04  -0.293646  -0.509048  0.040004  2.372288  0.067
O  O24  1  0.06420817  0.24422960  0.06291163  1  -0.559177  0.052956  2.092027  0.09  -0.53756  0.031409  2.374811  0.055  -0.573966  0.022082  2.364125  0.041  -0.293426  -0.50796  0.040549  2.381399  0.067
O  O25  1  0.36310380  0.75575557  0.94011896  1  -0.559666  0.052165  2.083319  0.089  -0.538537  0.03086  2.366333  0.054  -0.574873  0.021617  2.355754  0.04  -0.29362  -0.508952  0.039978  2.3729  0.067
O  O26  1  0.38365606  0.28142461  0.54668940  1  -0.500693  0.033569  2.148102  0.057  -0.470789  0.02467  2.401698  0.042  -0.494859  0.018222  2.390222  0.034  -0.369092  -0.450369  0.030673  2.408701  0.05
O  O27  1  0.21170352  0.71928795  0.45254592  1  -0.499934  0.033772  2.148987  0.057  -0.47011  0.024802  2.401485  0.043  -0.494331  0.018298  2.390456  0.034  -0.368957  -0.44967  0.030862  2.40826  0.05
O  O28  1  0.61635032  0.45330857  0.71856915  1  -0.500725  0.033576  2.148096  0.057  -0.47081  0.024675  2.401653  0.042  -0.494899  0.018225  2.390185  0.034  -0.369087  -0.450386  0.030677  2.408651  0.05
O  O29  1  0.78829783  0.54745068  0.28071366  1  -0.499996  0.033764  2.149078  0.057  -0.47016  0.024797  2.401516  0.043  -0.494369  0.018295  2.390474  0.034  -0.368971  -0.449715  0.030859  2.408289  0.05
