# generated using pymatgen
data_CdH14C10(N4O)2
_symmetry_space_group_name_H-M   'P 1'
_cell_length_a   6.45052713
_cell_length_b   7.76103452
_cell_length_c   8.15107738
_cell_angle_alpha   102.65215889
_cell_angle_beta   103.41894506
_cell_angle_gamma   103.44773118
_symmetry_Int_Tables_number   1
_chemical_formula_structural   CdH14C10(N4O)2
_chemical_formula_sum   'Cd1 H14 C10 N8 O2'
_cell_volume   369.61889442
_cell_formula_units_Z   1
loop_
 _symmetry_equiv_pos_site_id
 _symmetry_equiv_pos_as_xyz
  1  'x, y, z'
loop_
 _atom_site_type_symbol
 _atom_site_label
 _atom_site_symmetry_multiplicity
 _atom_site_fract_x
 _atom_site_fract_y
 _atom_site_fract_z
 _atom_site_occupancy
 _atom_site_pbe_bader_charge
 _atom_site_pbe_bader_spin_density
 _atom_site_pbe_cm5_charge
 _atom_site_pbe_ddec_charge
 _atom_site_pbe_ddec_spin_density
 _atom_site_pbe_ddec_sum_bond_order
 _atom_site_pbe_magmom
Cd  Cd0  1  0.50000545  0.50000905  0.99999587  1  1.347522  0  0.839383  1.03693  0  2.327291  0
H  H1  1  0.31997289  0.57210188  0.34292000  1  0.083837  0  0.1056  0.126722  0  1.040114  0
H  H2  1  0.68001853  0.42788496  0.65708279  1  0.083855  0  0.10561  0.126746  0  1.039957  0
H  H3  1  0.38385476  0.62252255  0.57655970  1  0.100837  0  0.101687  0.122162  0  1.015094  0
H  H4  1  0.61613886  0.37746153  0.42344782  1  0.101021  0  0.101699  0.122155  0  1.015188  0
H  H5  1  0.46270810  0.80334267  0.47946113  1  0.037994  0  0.099343  0.113646  0  1.010405  0
H  H6  1  0.53728454  0.19663864  0.52054441  1  0.038472  0  0.099305  0.113582  0  1.01044  0
H  H7  1  0.93112262  0.84473122  0.58090211  1  0.081405  0  0.108971  0.127826  0  1.024377  0
H  H8  1  0.06887788  0.15525427  0.41910453  1  0.081282  0  0.109023  0.127901  0  1.024368  0
H  H9  1  0.21822927  0.97391530  0.63563789  1  0.05613  0  0.103463  0.123288  0  0.996964  0
H  H10  1  0.78176227  0.02606739  0.36436528  1  0.055992  0  0.103528  0.123408  0  0.996922  0
H  H11  1  0.14201070  0.78367289  0.72199772  1  0.080005  0  0.100778  0.116406  0  1.014116  0
H  H12  1  0.85797924  0.21630980  0.27800637  1  0.080144  0  0.100785  0.1164  0  1.013994  0
H  H13  1  0.98703506  0.53684279  0.20130574  1  0.133496  0  0.119776  0.052752  0  1.032524  0
H  H14  1  0.01295933  0.46315236  0.79869443  1  0.133492  0  0.119793  0.052765  0  1.032527  0
C  C15  1  0.73327330  0.84742691  0.86779239  1  1.551193  0  0.310593  0.454954  0  4.266082  0
C  C16  1  0.26674754  0.15261121  0.13220327  1  1.551098  0  0.310702  0.455078  0  4.266402  0
C  C17  1  0.33392186  0.67512775  0.46366223  1  0.257849  0  -0.141319  -0.286569  0  3.891967  0
C  C18  1  0.66607557  0.32485359  0.53634297  1  0.257428  0  -0.141316  -0.286483  0  3.892031  0
C  C19  1  0.10152923  0.83530326  0.60686442  1  0.269669  0  -0.136652  -0.270904  0  3.871524  0
C  C20  1  0.89847127  0.16468223  0.39314222  1  0.269622  0  -0.136807  -0.271132  0  3.871785  0
C  C21  1  0.94785493  0.62770764  0.30672041  1  1.343403  0  0.168286  0.29307  0  4.093712  0
C  C22  1  0.05215161  0.37229033  0.69328260  1  1.343942  0  0.168312  0.293165  0  4.093798  0
C  C23  1  0.72028856  0.14747409  0.89838389  1  1.580354  0  0.315364  0.464743  0  4.264316  0
C  C24  1  0.27973197  0.85255433  0.10162930  1  1.579828  0  0.315209  0.464739  0  4.263706  0
N  N25  1  0.72605382  0.70365542  0.89638158  1  -1.254927  0  -0.390817  -0.564739  0  3.076764  0
N  N26  1  0.27393618  0.29636322  0.10361042  1  -1.25481  0  -0.390892  -0.564747  0  3.076724  0
N  N27  1  0.74767711  0.99556653  0.81840901  1  -1.335307  0  -0.302018  -0.383124  0  3.561914  0
N  N28  1  0.25234779  0.00447852  0.18158517  1  -1.335602  0  -0.301979  -0.383163  0  3.561975  0
N  N29  1  0.11942084  0.70940188  0.45342750  1  -1.222563  0  -0.280511  0.036238  0  3.720271  0
N  N30  1  0.88057073  0.29058083  0.54656831  1  -1.22265  0  -0.28055  0.036109  0  3.720382  0
N  N31  1  0.70053095  0.29315231  0.95908825  1  -1.276763  0  -0.388021  -0.563667  0  3.117952  0
N  N32  1  0.29948634  0.70686231  0.04089815  1  -1.275908  0  -0.387874  -0.563664  0  3.117661  0
O  O33  1  0.75623728  0.64795999  0.28616206  1  -1.160431  0  -0.314247  -0.481334  0  2.322371  0
O  O34  1  0.24375527  0.35204344  0.71383705  1  -1.160911  0  -0.314206  -0.48126  0  2.322659  0
