# generated using pymatgen
data_ZnH8C6(BrN)2
_symmetry_space_group_name_H-M   'P 1'
_cell_length_a   6.41844830
_cell_length_b   8.61553478
_cell_length_c   9.89136495
_cell_angle_alpha   113.22491736
_cell_angle_beta   89.97059187
_cell_angle_gamma   111.89896810
_symmetry_Int_Tables_number   1
_chemical_formula_structural   ZnH8C6(BrN)2
_chemical_formula_sum   'Zn2 H16 C12 Br4 N4'
_cell_volume   459.43991095
_cell_formula_units_Z   2
loop_
 _symmetry_equiv_pos_site_id
 _symmetry_equiv_pos_as_xyz
  1  'x, y, z'
loop_
 _atom_site_type_symbol
 _atom_site_label
 _atom_site_symmetry_multiplicity
 _atom_site_fract_x
 _atom_site_fract_y
 _atom_site_fract_z
 _atom_site_occupancy
 _atom_site_hle17_bader_spin_density
 _atom_site_hle17_ddec_charge
 _atom_site_hle17_ddec_spin_density
 _atom_site_hle17_ddec_sum_bond_order
 _atom_site_hle17_magmom
 _atom_site_hse06_10hf_bader_spin_density
 _atom_site_hse06_10hf_ddec_charge
 _atom_site_hse06_10hf_ddec_spin_density
 _atom_site_hse06_10hf_ddec_sum_bond_order
 _atom_site_hse06_10hf_magmom
 _atom_site_hse06_bader_spin_density
 _atom_site_hse06_ddec_charge
 _atom_site_hse06_ddec_spin_density
 _atom_site_hse06_ddec_sum_bond_order
 _atom_site_hse06_magmom
 _atom_site_pbe_bader_spin_density
 _atom_site_pbe_cm5_charge
 _atom_site_pbe_ddec_charge
 _atom_site_pbe_ddec_spin_density
 _atom_site_pbe_ddec_sum_bond_order
 _atom_site_pbe_magmom
Zn  Zn0  1  0.11616793  0.99973095  0.75001376  1  0  0.770528  0  2.089121  0  0  0.5961  0  2.557218  0  0  0.639281  0  2.513057  0  0  0.513628  0.566278  0  2.588154  0
Zn  Zn1  1  0.88384402  0.00026474  0.24999140  1  0  0.770595  0  2.089092  0  0  0.596112  0  2.557211  0  0  0.639303  0  2.513054  0  0  0.513657  0.56628  0  2.588158  0
H  H2  1  0.15951473  0.73349827  0.47108269  1  0  0.097497  0  0.952028  0  0  0.106727  0  1.014128  0  0  0.109191  0  1.013022  0  0  0.114594  0.104869  0  1.01529  0
H  H3  1  0.42640530  0.26638994  0.02847889  1  0  0.097397  0  0.951762  0  0  0.106767  0  1.013707  0  0  0.109234  0  1.012574  0  0  0.114669  0.104909  0  1.014879  0
H  H4  1  0.84047072  0.26653476  0.52892120  1  0  0.097296  0  0.951845  0  0  0.106552  0  1.013999  0  0  0.109018  0  1.012891  0  0  0.114535  0.104697  0  1.015156  0
H  H5  1  0.57358642  0.73358089  0.97151163  1  0  0.097552  0  0.951506  0  0  0.106846  0  1.013608  0  0  0.109315  0  1.012474  0  0  0.114673  0.104987  0  1.01478  0
H  H6  1  0.41920271  0.35491177  0.77688779  1  0  0.11565  0  1.000009  0  0  0.1329  0  1.068721  0  0  0.134847  0  1.067839  0  0  0.079705  0.131317  0  1.0696  0
H  H7  1  0.06441775  0.64483011  0.72318908  1  0  0.115372  0  1.001109  0  0  0.13294  0  1.069363  0  0  0.134895  0  1.068476  0  0  0.079675  0.131361  0  1.070237  0
H  H8  1  0.58081008  0.64511986  0.22312471  1  0  0.115559  0  0.999657  0  0  0.132763  0  1.068493  0  0  0.134716  0  1.067605  0  0  0.079638  0.131176  0  1.069378  0
H  H9  1  0.93560340  0.35514348  0.27680744  1  0  0.115424  0  1.000987  0  0  0.132902  0  1.069329  0  0  0.13486  0  1.068441  0  0  0.079643  0.131315  0  1.070213  0
H  H10  1  0.67032637  0.45999544  0.71243742  1  0  0.129965  0  0.967622  0  0  0.148342  0  1.031615  0  0  0.150437  0  1.030941  0  0  0.08539  0.146664  0  1.032358  0
H  H11  1  0.21030369  0.53979167  0.78755220  1  0  0.130192  0  0.966789  0  0  0.148721  0  1.030673  0  0  0.150796  0  1.030017  0  0  0.085535  0.147071  0  1.031371  0
H  H12  1  0.32967481  0.54002234  0.28758243  1  0  0.129946  0  0.96745  0  0  0.148277  0  1.031524  0  0  0.150372  0  1.03085  0  0  0.085385  0.146599  0  1.032267  0
H  H13  1  0.78973899  0.46018755  0.21241188  1  0  0.13003  0  0.966878  0  0  0.148613  0  1.030744  0  0  0.150694  0  1.030079  0  0  0.085457  0.146962  0  1.031442  0
H  H14  1  0.68662004  0.36693083  0.84101005  1  0  0.131272  0  0.966193  0  0  0.147508  0  1.035334  0  0  0.148857  0  1.035632  0  0  0.083166  0.146486  0  1.035042  0
H  H15  1  0.31990264  0.63298872  0.65902716  1  0  0.131316  0  0.966071  0  0  0.147526  0  1.035457  0  0  0.148891  0  1.035755  0  0  0.083038  0.146488  0  1.03517  0
H  H16  1  0.31336665  0.63307042  0.15898489  1  0  0.131191  0  0.965988  0  0  0.147521  0  1.035055  0  0  0.148874  0  1.035349  0  0  0.083185  0.146499  0  1.034762  0
H  H17  1  0.68007993  0.36701673  0.34095205  1  0  0.131228  0  0.966007  0  0  0.147416  0  1.035439  0  0  0.148778  0  1.035745  0  0  0.083026  0.146379  0  1.035145  0
C  C18  1  0.53503651  0.16542106  0.61783534  1  0  0.293285  0  3.68833  0  0  0.293329  0  3.94135  0  0  0.299656  0  3.960323  0  0  0.13124  0.288746  0  3.928768  0
C  C19  1  0.36963863  0.83447575  0.88222020  1  0  0.292064  0  3.69148  0  0  0.29346  0  3.94304  0  0  0.299832  0  3.962004  0  0  0.131667  0.288849  0  3.930448  0
C  C20  1  0.46495705  0.83461885  0.38218305  1  0  0.293312  0  3.689127  0  0  0.293362  0  3.941977  0  0  0.299709  0  3.96096  0  0  0.131264  0.28878  0  3.929396  0
C  C21  1  0.63034103  0.16548963  0.11774216  1  0  0.292149  0  3.691856  0  0  0.2933  0  3.943678  0  0  0.299674  0  3.96264  0  0  0.131542  0.288684  0  3.93108  0
C  C22  1  0.31375957  0.85245830  0.48343196  1  0  0.045986  0  3.621056  0  0  0.006335  0  3.875381  0  0  0.00929  0  3.891382  0  0  0.055426  0.003808  0  3.865337  0
C  C23  1  0.46146980  0.14744631  0.01635945  1  0  0.046823  0  3.621522  0  0  0.006808  0  3.875514  0  0  0.009792  0  3.891565  0  0  0.055325  0.004226  0  3.865486  0
C  C24  1  0.68620324  0.14753881  0.51656055  1  0  0.046173  0  3.620691  0  0  0.006421  0  3.875157  0  0  0.0094  0  3.891176  0  0  0.055335  0.003873  0  3.865154  0
C  C25  1  0.53852278  0.85252312  0.98363867  1  0  0.046713  0  3.620603  0  0  0.006599  0  3.874617  0  0  0.009581  0  3.890674  0  0  0.055265  0.004012  0  3.864582  0
C  C26  1  0.57905974  0.34666744  0.74373783  1  0  -0.396032  0  3.71382  0  0  -0.475869  0  3.945317  0  0  -0.480139  0  3.953447  0  0  -0.254539  -0.472414  0  3.939558  0
C  C27  1  0.23252075  0.65316920  0.75632158  1  0  -0.39622  0  3.715925  0  0  -0.476882  0  3.946987  0  0  -0.481161  0  3.955113  0  0  -0.255116  -0.473455  0  3.941241  0
C  C28  1  0.42093744  0.65337659  0.25629209  1  0  -0.396049  0  3.713648  0  0  -0.475861  0  3.945083  0  0  -0.480145  0  3.953221  0  0  -0.254613  -0.472402  0  3.939322  0
C  C29  1  0.76748712  0.34679340  0.24364891  1  0  -0.396118  0  3.715478  0  0  -0.476716  0  3.946583  0  0  -0.481001  0  3.954708  0  0  -0.255032  -0.473273  0  3.940825  0
Br  Br30  1  0.77825380  0.73736839  0.60735606  1  0  -0.500563  0  1.027326  0  0  -0.432826  0  1.322908  0  0  -0.451477  0  1.302328  0  0  -0.24562  -0.418792  0  1.337774  0
Br  Br31  1  0.03979427  0.26149744  0.89298304  1  0  -0.500584  0  1.026026  0  0  -0.433035  0  1.321816  0  0  -0.451695  0  1.301235  0  0  -0.245861  -0.419008  0  1.336684  0
Br  Br32  1  0.22173556  0.26261333  0.39269887  1  0  -0.500589  0  1.027368  0  0  -0.432788  0  1.322913  0  0  -0.451443  0  1.302337  0  0  -0.245629  -0.418749  0  1.33778  0
Br  Br33  1  0.96024676  0.73851899  0.10702421  1  0  -0.500604  0  1.026124  0  0  -0.433  0  1.321919  0  0  -0.451661  0  1.301338  0  0  -0.245853  -0.418969  0  1.336787  0
N  N34  1  0.34795482  0.01317285  0.59897427  1  0  -0.301926  0  3.25215  0  0  -0.22412  0  3.515162  0  0  -0.239883  0  3.530886  0  0  -0.305718  -0.213437  0  3.505373  0
N  N35  1  0.33499774  0.98667246  0.90088653  1  0  -0.301974  0  3.254062  0  0  -0.22458  0  3.516836  0  0  -0.240492  0  3.532751  0  0  -0.306065  -0.213811  0  3.506902  0
N  N36  1  0.65204034  0.98684222  0.40102443  1  0  -0.301907  0  3.25233  0  0  -0.224024  0  3.515259  0  0  -0.239843  0  3.531036  0  0  -0.305619  -0.213348  0  3.505473  0
N  N37  1  0.66500521  0.01333015  0.09911596  1  0  -0.30195  0  3.253964  0  0  -0.224443  0  3.516765  0  0  -0.240354  0  3.532676  0  0  -0.305997  -0.213653  0  3.506801  0
