# generated using pymatgen
data_KH(CO2)2
_symmetry_space_group_name_H-M   'P 1'
_cell_length_a   4.25401848
_cell_length_b   7.69343655
_cell_length_c   12.96539176
_cell_angle_alpha   89.99981635
_cell_angle_beta   90.00003373
_cell_angle_gamma   101.69063752
_symmetry_Int_Tables_number   1
_chemical_formula_structural   KH(CO2)2
_chemical_formula_sum   'K4 H4 C8 O16'
_cell_volume   415.52925391
_cell_formula_units_Z   4
loop_
 _symmetry_equiv_pos_site_id
 _symmetry_equiv_pos_as_xyz
  1  'x, y, z'
loop_
 _atom_site_type_symbol
 _atom_site_label
 _atom_site_symmetry_multiplicity
 _atom_site_fract_x
 _atom_site_fract_y
 _atom_site_fract_z
 _atom_site_occupancy
 _atom_site_hle17_bader_spin_density
 _atom_site_hle17_ddec_charge
 _atom_site_hle17_ddec_spin_density
 _atom_site_hle17_ddec_sum_bond_order
 _atom_site_hle17_magmom
 _atom_site_hse06_10hf_bader_spin_density
 _atom_site_hse06_10hf_ddec_charge
 _atom_site_hse06_10hf_ddec_spin_density
 _atom_site_hse06_10hf_ddec_sum_bond_order
 _atom_site_hse06_10hf_magmom
 _atom_site_hse06_bader_spin_density
 _atom_site_hse06_ddec_charge
 _atom_site_hse06_ddec_spin_density
 _atom_site_hse06_ddec_sum_bond_order
 _atom_site_hse06_magmom
 _atom_site_pbe_bader_spin_density
 _atom_site_pbe_cm5_charge
 _atom_site_pbe_ddec_charge
 _atom_site_pbe_ddec_spin_density
 _atom_site_pbe_ddec_sum_bond_order
 _atom_site_pbe_magmom
K  K0  1  0.18534810  0.77141721  0.93152455  1  0  0.933268  0  0.460928  0  0  0.88501  0  0.64206  0  0  0.900485  0  0.618889  0  0  0.800027  0.873441  0  0.658595  0
K  K1  1  0.81466539  0.72858015  0.43152279  1  0  0.933289  0  0.460897  0  0  0.884996  0  0.642074  0  0  0.900469  0  0.618907  0  0  0.800029  0.873433  0  0.6586  0
K  K2  1  0.81466033  0.22857892  0.06847677  1  0  0.933273  0  0.460922  0  0  0.885  0  0.642073  0  0  0.900476  0  0.618902  0  0  0.800021  0.873424  0  0.658622  0
K  K3  1  0.18534774  0.27141598  0.56847776  1  0  0.933275  0  0.460924  0  0  0.885  0  0.642066  0  0  0.900463  0  0.618915  0  0  0.800028  0.873435  0  0.658593  0
H  H4  1  0.86421456  0.02179733  0.77424354  1  0  0.397687  0  0.896892  0  0  0.366054  0  0.976408  0  0  0.380111  0  0.962039  0  0  0.305412  0.356221  0  0.986365  0
H  H5  1  0.13578651  0.47820309  0.27424503  1  0  0.397651  0  0.896956  0  0  0.366019  0  0.976469  0  0  0.380077  0  0.962098  0  0  0.305415  0.356185  0  0.986426  0
H  H6  1  0.13578309  0.97820146  0.22575624  1  0  0.397678  0  0.896913  0  0  0.366027  0  0.976471  0  0  0.380085  0  0.962101  0  0  0.30541  0.356193  0  0.986428  0
H  H7  1  0.86421496  0.52179968  0.72575629  1  0  0.397762  0  0.896722  0  0  0.366068  0  0.976383  0  0  0.380125  0  0.962012  0  0  0.305435  0.356234  0  0.98634  0
C  C8  1  0.59920079  0.87244633  0.67187326  1  0  0.570445  0  3.790243  0  0  0.528115  0  4.089744  0  0  0.557411  0  4.079269  0  0  0.235879  0.508033  0  4.096674  0
C  C9  1  0.40081097  0.62756040  0.17187470  1  0  0.570683  0  3.789707  0  0  0.528125  0  4.089588  0  0  0.557431  0  4.079101  0  0  0.235855  0.508043  0  4.096517  0
C  C10  1  0.40080538  0.12755643  0.32812575  1  0  0.570509  0  3.790177  0  0  0.528127  0  4.089735  0  0  0.557438  0  4.07924  0  0  0.23589  0.508045  0  4.096665  0
C  C11  1  0.59919098  0.37244370  0.82812509  1  0  0.570629  0  3.790029  0  0  0.528057  0  4.089901  0  0  0.557352  0  4.079437  0  0  0.235831  0.507975  0  4.096829  0
C  C12  1  0.31460588  0.71331045  0.65306176  1  0  0.567447  0  3.940637  0  0  0.523622  0  4.241564  0  0  0.553078  0  4.232967  0  0  0.209592  0.503634  0  4.246932  0
C  C13  1  0.68538984  0.78669108  0.15306373  1  0  0.567355  0  3.940667  0  0  0.523561  0  4.241674  0  0  0.553007  0  4.23309  0  0  0.20958  0.503573  0  4.24704  0
C  C14  1  0.68539178  0.28668833  0.34693725  1  0  0.567296  0  3.940643  0  0  0.523525  0  4.24151  0  0  0.552965  0  4.232936  0  0  0.209567  0.503537  0  4.246877  0
C  C15  1  0.31460644  0.21331037  0.84693683  1  0  0.567317  0  3.940741  0  0  0.523571  0  4.241662  0  0  0.553014  0  4.233089  0  0  0.209572  0.503583  0  4.247029  0
O  O16  1  0.65831513  0.91398430  0.76964196  1  0  -0.564385  0  2.134945  0  0  -0.518992  0  2.363011  0  0  -0.542065  0  2.349992  0  0  -0.346781  -0.502925  0  2.371618  0
O  O17  1  0.34168007  0.58601527  0.26964347  1  0  -0.564397  0  2.134838  0  0  -0.518916  0  2.362981  0  0  -0.541991  0  2.349953  0  0  -0.346767  -0.502855  0  2.371596  0
O  O18  1  0.34168252  0.08601449  0.23035705  1  0  -0.564353  0  2.134878  0  0  -0.518932  0  2.362965  0  0  -0.542009  0  2.349937  0  0  -0.346774  -0.502869  0  2.37158  0
O  O19  1  0.65831669  0.41398750  0.73035863  1  0  -0.564432  0  2.134875  0  0  -0.518911  0  2.36305  0  0  -0.541978  0  2.350026  0  0  -0.346776  -0.502848  0  2.371662  0
O  O20  1  0.13105367  0.66649218  0.73018017  1  0  -0.625645  0  2.102836  0  0  -0.578646  0  2.338724  0  0  -0.603652  0  2.330181  0  0  -0.3692  -0.561277  0  2.344188  0
O  O21  1  0.86894673  0.83350893  0.23017976  1  0  -0.625586  0  2.102855  0  0  -0.578589  0  2.338712  0  0  -0.603592  0  2.330175  0  0  -0.369198  -0.56122  0  2.344175  0
O  O22  1  0.86894682  0.33350793  0.26982038  1  0  -0.625527  0  2.10287  0  0  -0.578574  0  2.338707  0  0  -0.603576  0  2.330173  0  0  -0.369187  -0.561204  0  2.344169  0
O  O23  1  0.13105563  0.16648986  0.76982079  1  0  -0.625543  0  2.102885  0  0  -0.578586  0  2.338726  0  0  -0.603585  0  2.33019  0  0  -0.369179  -0.561217  0  2.34419  0
O  O24  1  0.75109176  0.94955807  0.59826493  1  0  -0.59297  0  1.981167  0  0  -0.557056  0  2.206274  0  0  -0.576136  0  2.197843  0  0  -0.377699  -0.543853  0  2.211931  0
O  O25  1  0.24890113  0.55044243  0.09826418  1  0  -0.593084  0  1.980792  0  0  -0.557092  0  2.206021  0  0  -0.576178  0  2.197589  0  0  -0.377695  -0.543882  0  2.211675  0
O  O26  1  0.24890727  0.05043806  0.40173408  1  0  -0.593018  0  1.981167  0  0  -0.557085  0  2.20629  0  0  -0.576169  0  2.197854  0  0  -0.377706  -0.543873  0  2.211935  0
O  O27  1  0.75108907  0.44956167  0.90173561  1  0  -0.593071  0  1.980959  0  0  -0.557069  0  2.206173  0  0  -0.576151  0  2.197747  0  0  -0.377687  -0.54386  0  2.211829  0
O  O28  1  0.28915361  0.64609943  0.56459400  1  0  -0.685906  0  1.993833  0  0  -0.648123  0  2.229387  0  0  -0.669244  0  2.219422  0  0  -0.457227  -0.633294  0  2.235917  0
O  O29  1  0.71084585  0.85389992  0.06459353  1  0  -0.685905  0  1.993811  0  0  -0.64811  0  2.229348  0  0  -0.669231  0  2.219388  0  0  -0.457229  -0.633278  0  2.235877  0
O  O30  1  0.71084120  0.35389803  0.43540655  1  0  -0.685855  0  1.993679  0  0  -0.648087  0  2.229188  0  0  -0.669203  0  2.219233  0  0  -0.457226  -0.633257  0  2.235716  0
O  O31  1  0.28915513  0.14610152  0.93540626  1  0  -0.685887  0  1.993809  0  0  -0.648109  0  2.229324  0  0  -0.669228  0  2.219365  0  0  -0.457213  -0.633276  0  2.235854  0
