# generated using pymatgen
data_HgH16C8(ClO2)2
_symmetry_space_group_name_H-M   'P 1'
_cell_length_a   7.22642679
_cell_length_b   7.22641122
_cell_length_c   7.83511248
_cell_angle_alpha   117.43964463
_cell_angle_beta   117.47889757
_cell_angle_gamma   90.04128453
_symmetry_Int_Tables_number   1
_chemical_formula_structural   HgH16C8(ClO2)2
_chemical_formula_sum   'Hg1 H16 C8 Cl2 O4'
_cell_volume   310.10684082
_cell_formula_units_Z   1
loop_
 _symmetry_equiv_pos_site_id
 _symmetry_equiv_pos_as_xyz
  1  'x, y, z'
loop_
 _atom_site_type_symbol
 _atom_site_label
 _atom_site_symmetry_multiplicity
 _atom_site_fract_x
 _atom_site_fract_y
 _atom_site_fract_z
 _atom_site_occupancy
 _atom_site_pbe_bader_spin_density
 _atom_site_pbe_cm5_charge
 _atom_site_pbe_ddec_charge
 _atom_site_pbe_ddec_spin_density
 _atom_site_pbe_ddec_sum_bond_order
 _atom_site_pbe_magmom
Hg  Hg0  1  0.00000000  0.00000000  0.00000000  1  0  0.552637  0.638757  0  2.526614  0
H  H1  1  0.95344176  0.20249144  0.65752826  1  0  0.095794  0.07708  0  1.022873  0
H  H2  1  0.70417889  0.45486424  0.65712097  1  0  0.096135  0.077762  0  1.021964  0
H  H3  1  0.20203140  0.70420490  0.65717996  1  0  0.095738  0.077298  0  1.022587  0
H  H4  1  0.45499906  0.95349216  0.65745182  1  0  0.0962  0.077782  0  1.022529  0
H  H5  1  0.04655947  0.79750844  0.34247148  1  0  0.095796  0.077064  0  1.02287  0
H  H6  1  0.29582234  0.54513564  0.34287877  1  0  0.096122  0.07774  0  1.021994  0
H  H7  1  0.79797027  0.29579662  0.34282321  1  0  0.095732  0.07729  0  1.022591  0
H  H8  1  0.54500217  0.04650773  0.34255048  1  0  0.09621  0.077804  0  1.022469  0
H  H9  1  0.09339624  0.48057862  0.79373391  1  0  0.096025  0.07688  0  1.005896  0
H  H10  1  0.70024615  0.31285369  0.79309432  1  0  0.096057  0.076392  0  1.005359  0
H  H11  1  0.48008574  0.70043396  0.79331869  1  0  0.095515  0.075668  0  1.005973  0
H  H12  1  0.31318645  0.09333264  0.79351977  1  0  0.095979  0.076526  0  1.005575  0
H  H13  1  0.90660342  0.51942125  0.20626389  1  0  0.096017  0.076876  0  1.005896  0
H  H14  1  0.29975395  0.68714781  0.20690563  1  0  0.09606  0.07639  0  1.00535  0
H  H15  1  0.51991393  0.29956592  0.20668167  1  0  0.095511  0.075661  0  1.005981  0
H  H16  1  0.68681209  0.90666886  0.20648080  1  0  0.095977  0.076521  0  1.005607  0
C  C17  1  0.99968948  0.36661230  0.80074989  1  0  -0.089061  -0.031456  0  3.921211  0
C  C18  1  0.80110947  0.43400831  0.80041233  1  0  -0.088668  -0.03032  0  3.919433  0
C  C19  1  0.36624975  0.80116196  0.80049111  1  0  -0.087777  -0.029194  0  3.920113  0
C  C20  1  0.43413419  0.99969188  0.80065398  1  0  -0.089363  -0.031866  0  3.920669  0
C  C21  1  0.00030975  0.63338596  0.19924832  1  0  -0.089031  -0.031389  0  3.92113  0
C  C22  1  0.19889019  0.56599157  0.19958675  1  0  -0.088679  -0.030319  0  3.919417  0
C  C23  1  0.63374991  0.19883792  0.19950797  1  0  -0.087767  -0.029168  0  3.920119  0
C  C24  1  0.56586504  0.00030638  0.19934551  1  0  -0.089381  -0.031892  0  3.920641  0
Cl  Cl25  1  0.19879756  0.19865410  0.39746825  1  0  -0.218052  -0.348924  0  1.278108  0
Cl  Cl26  1  0.80120255  0.80134740  0.60253298  1  0  -0.21805  -0.348921  0  1.278108  0
O  O27  1  0.13770001  0.35916171  0.00022037  1  0  -0.235485  -0.231562  0  2.520101  0
O  O28  1  0.86229965  0.64083816  0.99977743  1  0  -0.2355  -0.231586  0  2.520141  0
O  O29  1  0.35882012  0.86228073  0.99985435  1  0  -0.235351  -0.231444  0  2.519569  0
O  O30  1  0.64117842  0.13772078  0.00014622  1  0  -0.23534  -0.231452  0  2.51963  0
