# generated using pymatgen
data_GaH3C4O5
_symmetry_space_group_name_H-M   'P 1'
_cell_length_a   6.83957090
_cell_length_b   8.99789708
_cell_length_c   8.99795262
_cell_angle_alpha   77.66264513
_cell_angle_beta   75.20058845
_cell_angle_gamma   75.20088124
_symmetry_Int_Tables_number   1
_chemical_formula_structural   GaH3C4O5
_chemical_formula_sum   'Ga2 H6 C8 O10'
_cell_volume   511.05311324
_cell_formula_units_Z   2
loop_
 _symmetry_equiv_pos_site_id
 _symmetry_equiv_pos_as_xyz
  1  'x, y, z'
loop_
 _atom_site_type_symbol
 _atom_site_label
 _atom_site_symmetry_multiplicity
 _atom_site_fract_x
 _atom_site_fract_y
 _atom_site_fract_z
 _atom_site_occupancy
 _atom_site_pbe_bader_charge
 _atom_site_pbe_bader_spin_density
 _atom_site_pbe_cm5_charge
 _atom_site_pbe_ddec_charge
 _atom_site_pbe_ddec_spin_density
 _atom_site_pbe_ddec_sum_bond_order
 _atom_site_pbe_magmom
Ga  Ga0  1  0.50001573  0.49996586  0.49998083  1  1.977301  0  0.587374  1.464047  0  2.792708  0
Ga  Ga1  1  0.00001513  0.49997858  0.49996518  1  1.977319  0  0.587395  1.464009  0  2.792657  0
H  H2  1  0.74983500  0.66447166  0.33594306  1  0.622979  0  0.345317  0.429199  0  0.851002  0
H  H3  1  0.24979579  0.33599718  0.66452712  1  0.622033  0  0.345207  0.429143  0  0.851086  0
H  H4  1  0.22710677  0.01384470  0.47567485  1  0.124404  0  0.119193  0.141006  0  0.973867  0
H  H5  1  0.27290985  0.52433784  0.98611556  1  0.124371  0  0.119085  0.140882  0  0.973758  0
H  H6  1  0.77291032  0.98611068  0.52434263  1  0.124833  0  0.119112  0.140927  0  0.973809  0
H  H7  1  0.72711174  0.47567056  0.01384591  1  0.124233  0  0.11912  0.140859  0  0.973814  0
C  C8  1  0.14832070  0.78699892  0.49390526  1  1.574117  0  0.246801  0.654682  0  4.131924  0
C  C9  1  0.35171292  0.50606592  0.21295689  1  1.573585  0  0.247074  0.655186  0  4.131444  0
C  C10  1  0.85172747  0.21295360  0.50606454  1  1.57344  0  0.247092  0.655315  0  4.132106  0
C  C11  1  0.64831543  0.49390304  0.78700010  1  1.574164  0  0.24697  0.654856  0  4.131668  0
C  C12  1  0.09740581  0.95815211  0.49178592  1  -0.087738  0  -0.070905  -0.168279  0  3.867077  0
C  C13  1  0.40263716  0.50821462  0.04181715  1  0.011124  0  -0.070787  -0.168204  0  3.867423  0
C  C14  1  0.90262591  0.04182085  0.50821962  1  0.010934  0  -0.070729  -0.168158  0  3.867388  0
C  C15  1  0.59739334  0.49178906  0.95815021  1  -0.087369  0  -0.070766  -0.168008  0  3.867146  0
O  O16  1  0.34102272  0.72393338  0.47198722  1  -1.175158  0  -0.264197  -0.567202  0  2.288267  0
O  O17  1  0.15902509  0.52797963  0.27602690  1  -1.174779  0  -0.264486  -0.567466  0  2.288071  0
O  O18  1  0.65901170  0.27602493  0.52798407  1  -1.174417  0  -0.264534  -0.56762  0  2.287858  0
O  O19  1  0.84102562  0.47199043  0.72393442  1  -1.175145  0  -0.264291  -0.567322  0  2.288007  0
O  O20  1  0.99797268  0.71981601  0.51567748  1  -1.17362  0  -0.259502  -0.56134  0  2.320172  0
O  O21  1  0.50205507  0.48424898  0.28015578  1  -1.173737  0  -0.259579  -0.561422  0  2.319864  0
O  O22  1  0.00204228  0.28015225  0.48424445  1  -1.173618  0  -0.259569  -0.561369  0  2.320528  0
O  O23  1  0.49797423  0.51567443  0.71981910  1  -1.173645  0  -0.259548  -0.561408  0  2.320335  0
O  O24  1  0.75001536  0.57832209  0.42159990  1  -1.223246  0  -0.475463  -0.891197  0  2.235465  0
O  O25  1  0.25002242  0.42158243  0.57831045  1  -1.222365  0  -0.475383  -0.891119  0  2.235499  0
