# generated using pymatgen
data_KH5C2(N4O)2
_symmetry_space_group_name_H-M   'P 1'
_cell_length_a   7.23697096
_cell_length_b   7.55874751
_cell_length_c   7.90253773
_cell_angle_alpha   85.72822055
_cell_angle_beta   84.28536285
_cell_angle_gamma   86.37054308
_symmetry_Int_Tables_number   1
_chemical_formula_structural   KH5C2(N4O)2
_chemical_formula_sum   'K2 H10 C4 N16 O4'
_cell_volume   428.26382536
_cell_formula_units_Z   2
loop_
 _symmetry_equiv_pos_site_id
 _symmetry_equiv_pos_as_xyz
  1  'x, y, z'
loop_
 _atom_site_type_symbol
 _atom_site_label
 _atom_site_symmetry_multiplicity
 _atom_site_fract_x
 _atom_site_fract_y
 _atom_site_fract_z
 _atom_site_occupancy
 _atom_site_hle17_bader_spin_density
 _atom_site_hle17_ddec_charge
 _atom_site_hle17_ddec_spin_density
 _atom_site_hle17_ddec_sum_bond_order
 _atom_site_hle17_magmom
 _atom_site_hse06_10hf_bader_spin_density
 _atom_site_hse06_10hf_ddec_charge
 _atom_site_hse06_10hf_ddec_spin_density
 _atom_site_hse06_10hf_ddec_sum_bond_order
 _atom_site_hse06_10hf_magmom
 _atom_site_hse06_bader_spin_density
 _atom_site_hse06_ddec_charge
 _atom_site_hse06_ddec_spin_density
 _atom_site_hse06_ddec_sum_bond_order
 _atom_site_hse06_magmom
 _atom_site_pbe_bader_spin_density
 _atom_site_pbe_cm5_charge
 _atom_site_pbe_ddec_charge
 _atom_site_pbe_ddec_spin_density
 _atom_site_pbe_ddec_sum_bond_order
 _atom_site_pbe_magmom
K  K0  1  0.61297577  0.35636666  0.67974298  1  0  0.865216  0  0.50875  0  0  0.779344  0  0.733877  0  0  0.795845  0  0.708253  0  0  0.765467  0.767384  0  0.75174  0
K  K1  1  0.38702466  0.64363304  0.32025762  1  0  0.8652  0  0.508764  0  0  0.779315  0  0.733909  0  0  0.795819  0  0.708284  0  0  0.765456  0.767355  0  0.751772  0
H  H2  1  0.16594636  0.37437884  0.60129366  1  0  0.423051  0  0.880741  0  0  0.397532  0  0.93522  0  0  0.408234  0  0.919491  0  0  0.281484  0.389971  0  0.946305  0
H  H3  1  0.83405399  0.62562218  0.39870305  1  0  0.423036  0  0.880756  0  0  0.397521  0  0.935228  0  0  0.408222  0  0.919501  0  0  0.281488  0.38996  0  0.946314  0
H  H4  1  0.95242634  0.52458849  0.78741032  1  0  0.37782  0  0.943912  0  0  0.33479  0  1.027346  0  0  0.345496  0  1.011946  0  0  0.281092  0.327267  0  1.038128  0
H  H5  1  0.04757539  0.47541254  0.21258754  1  0  0.377835  0  0.943888  0  0  0.334802  0  1.027328  0  0  0.345509  0  1.011924  0  0  0.281096  0.327279  0  1.038109  0
H  H6  1  0.78914232  0.94879089  0.33653205  1  0  0.129858  0  0.92736  0  0  0.140137  0  0.98563  0  0  0.143846  0  0.980756  0  0  0.16003  0.137517  0  0.989831  0
H  H7  1  0.21085794  0.05121145  0.66347344  1  0  0.12991  0  0.927337  0  0  0.140146  0  0.985666  0  0  0.143856  0  0.98079  0  0  0.160035  0.137536  0  0.989874  0
H  H8  1  0.25998829  0.26325829  0.44709563  1  0  0.376008  0  0.94959  0  0  0.335635  0  1.030707  0  0  0.346194  0  1.015364  0  0  0.278606  0.328208  0  1.041464  0
H  H9  1  0.74001206  0.73674273  0.55290361  1  0  0.375976  0  0.949642  0  0  0.335598  0  1.03077  0  0  0.346156  0  1.015427  0  0  0.278586  0.328169  0  1.041528  0
H  H10  1  0.02987944  0.32819524  0.84011603  1  0  0.388091  0  0.92949  0  0  0.346249  0  1.012492  0  0  0.357184  0  0.996597  0  0  0.281036  0.338608  0  1.023553  0
H  H11  1  0.97012099  0.67180445  0.15988330  1  0  0.388088  0  0.929492  0  0  0.346248  0  1.012489  0  0  0.357182  0  0.996595  0  0  0.281035  0.338608  0  1.023549  0
C  C12  1  0.76155882  0.97090632  0.97568280  1  0  0.37764  0  3.842787  0  0  0.325523  0  4.148704  0  0  0.339869  0  4.163106  0  0  0.324946  0.305852  0  4.139295  0
C  C13  1  0.23844177  0.02909072  0.02431671  1  0  0.377562  0  3.842828  0  0  0.325468  0  4.148711  0  0  0.339815  0  4.163117  0  0  0.324896  0.305768  0  4.139299  0
C  C14  1  0.73960653  0.07132505  0.27094109  1  0  0.181454  0  3.605875  0  0  0.112739  0  3.887499  0  0  0.126101  0  3.895585  0  0  0.190868  0.094244  0  3.878698  0
C  C15  1  0.26038827  0.92867596  0.72905613  1  0  0.181479  0  3.605569  0  0  0.112756  0  3.887253  0  0  0.126122  0  3.895332  0  0  0.190843  0.094214  0  3.878459  0
N  N16  1  0.62425446  0.33395990  0.20932289  1  0  -0.070927  0  2.974168  0  0  -0.058326  0  3.281691  0  0  -0.057028  0  3.290251  0  0  -0.111152  -0.059267  0  3.2793  0
N  N17  1  0.37574743  0.66603847  0.79067894  1  0  -0.070969  0  2.974148  0  0  -0.058372  0  3.281677  0  0  -0.057073  0  3.290238  0  0  -0.111204  -0.059312  0  3.279295  0
N  N18  1  0.85592116  0.81468198  0.00198753  1  0  -0.339556  0  3.008283  0  0  -0.304428  0  3.284797  0  0  -0.317294  0  3.297692  0  0  -0.205021  -0.295896  0  3.279436  0
N  N19  1  0.14407935  0.18531639  0.99801315  1  0  -0.339518  0  3.008222  0  0  -0.304399  0  3.284731  0  0  -0.317265  0  3.297626  0  0  -0.205015  -0.295869  0  3.279379  0
N  N20  1  0.71912278  0.09142731  0.10202489  1  0  -0.037772  0  3.581187  0  0  0.043173  0  3.81537  0  0  0.029516  0  3.837337  0  0  -0.098275  0.081261  0  3.764675  0
N  N21  1  0.28087633  0.90857106  0.89797845  1  0  -0.037844  0  3.581167  0  0  0.043118  0  3.815341  0  0  0.029458  0  3.83731  0  0  -0.098244  0.081297  0  3.764547  0
N  N22  1  0.78196398  0.85391253  0.74044443  1  0  -0.088604  0  3.050561  0  0  -0.058293  0  3.330919  0  0  -0.061688  0  3.344962  0  0  -0.081071  -0.055435  0  3.320618  0
N  N23  1  0.21803482  0.14609115  0.25955604  1  0  -0.088519  0  3.050406  0  0  -0.058234  0  3.330787  0  0  -0.061627  0  3.344828  0  0  -0.08108  -0.055375  0  3.320486  0
N  N24  1  0.71286492  0.00053909  0.81657929  1  0  -0.36934  0  2.970795  0  0  -0.350595  0  3.265826  0  0  -0.362069  0  3.278606  0  0  -0.283739  -0.342893  0  3.26028  0
N  N25  1  0.28713411  0.99946060  0.18342650  1  0  -0.369351  0  2.970636  0  0  -0.350599  0  3.265659  0  0  -0.362075  0  3.278444  0  0  -0.283727  -0.342895  0  3.260115  0
N  N26  1  0.68123776  0.22157629  0.33940776  1  0  -0.264026  0  2.939968  0  0  -0.23282  0  3.230944  0  0  -0.244088  0  3.241955  0  0  -0.254926  -0.225712  0  3.2271  0
N  N27  1  0.31876422  0.77842075  0.66059289  1  0  -0.263976  0  2.939923  0  0  -0.232748  0  3.230905  0  0  -0.244019  0  3.241917  0  0  -0.254848  -0.225642  0  3.227078  0
N  N28  1  0.86615796  0.74395530  0.85006017  1  0  -0.091697  0  3.053613  0  0  -0.064056  0  3.330425  0  0  -0.067317  0  3.344607  0  0  -0.080312  -0.061392  0  3.320268  0
N  N29  1  0.13384239  0.25604573  0.14993655  1  0  -0.091746  0  3.053585  0  0  -0.064096  0  3.330398  0  0  -0.067357  0  3.344581  0  0  -0.080297  -0.061431  0  3.320241  0
N  N30  1  0.64559089  0.25879779  0.06579190  1  0  -0.097567  0  2.863236  0  0  -0.103274  0  3.155942  0  0  -0.100683  0  3.163947  0  0  -0.086688  -0.114399  0  3.145672  0
N  N31  1  0.35440815  0.74120190  0.93420883  1  0  -0.097555  0  2.863274  0  0  -0.10326  0  3.155977  0  0  -0.100669  0  3.163984  0  0  -0.086699  -0.114418  0  3.145692  0
O  O32  1  0.97627294  0.40312897  0.74631803  1  0  -0.85238  0  1.895996  0  0  -0.790081  0  2.075903  0  0  -0.809555  0  2.043547  0  0  -0.643989  -0.776084  0  2.098167  0
O  O33  1  0.02372741  0.59687205  0.25368122  1  0  -0.852386  0  1.895989  0  0  -0.790089  0  2.075898  0  0  -0.809564  0  2.043546  0  0  -0.643991  -0.776093  0  2.098161  0
O  O34  1  0.28734062  0.33800289  0.53826313  1  0  -0.90727  0  1.821766  0  0  -0.853229  0  2.002119  0  0  -0.872549  0  1.970639  0  0  -0.718351  -0.839212  0  2.023808  0
O  O35  1  0.71266259  0.66199680  0.46173595  1  0  -0.907219  0  1.821802  0  0  -0.853195  0  2.002184  0  0  -0.872508  0  1.970691  0  0  -0.718332  -0.839176  0  2.023871  0
