# generated using pymatgen
data_TlH2(C2O)2
_symmetry_space_group_name_H-M   'P 1'
_cell_length_a   6.25790546
_cell_length_b   7.51336971
_cell_length_c   10.69197249
_cell_angle_alpha   101.49169182
_cell_angle_beta   90.00036424
_cell_angle_gamma   90.00023274
_symmetry_Int_Tables_number   1
_chemical_formula_structural   TlH2(C2O)2
_chemical_formula_sum   'Tl4 H8 C16 O8'
_cell_volume   492.63708749
_cell_formula_units_Z   4
loop_
 _symmetry_equiv_pos_site_id
 _symmetry_equiv_pos_as_xyz
  1  'x, y, z'
loop_
 _atom_site_type_symbol
 _atom_site_label
 _atom_site_symmetry_multiplicity
 _atom_site_fract_x
 _atom_site_fract_y
 _atom_site_fract_z
 _atom_site_occupancy
 _atom_site_pbe_bader_spin_density
 _atom_site_pbe_cm5_charge
 _atom_site_pbe_ddec_charge
 _atom_site_pbe_ddec_spin_density
 _atom_site_pbe_ddec_sum_bond_order
 _atom_site_pbe_magmom
Tl  Tl0  1  0.91346892  0.65103483  0.94652644  1  0  0.427333  0.734208  0  1.092451  0
Tl  Tl1  1  0.41346856  0.34896494  0.05347294  1  0  0.427334  0.734208  0  1.092421  0
Tl  Tl2  1  0.37364757  0.90570117  0.21610769  1  0  0.419929  0.689454  0  1.118562  0
Tl  Tl3  1  0.87364824  0.09429707  0.78389227  1  0  0.419928  0.689441  0  1.118541  0
H  H4  1  0.89174136  0.94238351  0.25748100  1  0  0.100349  0.103487  0  1.058103  0
H  H5  1  0.39175666  0.05761626  0.74252297  1  0  0.100332  0.103489  0  1.05804  0
H  H6  1  0.79594951  0.01172423  0.48762507  1  0  0.094251  0.083394  0  1.037798  0
H  H7  1  0.29595565  0.98827917  0.51237901  1  0  0.094261  0.083394  0  1.037784  0
H  H8  1  0.73242804  0.33591378  0.59783209  1  0  0.096599  0.097663  0  1.059332  0
H  H9  1  0.23242822  0.66409337  0.40217037  1  0  0.09658  0.097675  0  1.059435  0
H  H10  1  0.76774971  0.58188681  0.47685968  1  0  0.10288  0.106794  0  0.991367  0
H  H11  1  0.26774201  0.41811765  0.52313695  1  0  0.102837  0.106701  0  0.991444  0
C  C12  1  0.85203849  0.40420268  0.29938079  1  0  -0.004769  -0.028753  0  3.914717  0
C  C13  1  0.35203678  0.59579681  0.70061832  1  0  -0.004762  -0.028833  0  3.914791  0
C  C14  1  0.88793631  0.22251840  0.23740084  1  0  -0.021439  -0.089895  0  3.988622  0
C  C15  1  0.38793456  0.77748263  0.76259954  1  0  -0.021452  -0.089861  0  3.988639  0
C  C16  1  0.86898591  0.08308623  0.30684897  1  0  -0.095507  -0.141599  0  4.059746  0
C  C17  1  0.36899528  0.91691197  0.69315004  1  0  -0.095483  -0.141557  0  4.059689  0
C  C18  1  0.81362793  0.12239517  0.43590995  1  0  -0.101128  -0.113444  0  4.065649  0
C  C19  1  0.31363410  0.87761101  0.56409363  1  0  -0.101167  -0.11351  0  4.065538  0
C  C20  1  0.77760068  0.30225133  0.49721251  1  0  -0.09036  -0.08  0  4.00455  0
C  C21  1  0.27759891  0.69774912  0.50278458  1  0  -0.090345  -0.079973  0  4.00439  0
C  C22  1  0.79671087  0.44162293  0.42889022  1  0  -0.085324  -0.095516  0  3.959144  0
C  C23  1  0.29670917  0.55838446  0.57111064  1  0  -0.085282  -0.095435  0  3.959152  0
C  C24  1  0.87718909  0.56070144  0.23067493  1  0  0.204179  0.594396  0  4.241821  0
C  C25  1  0.37718257  0.43929133  0.76932153  1  0  0.204267  0.594579  0  4.241887  0
C  C26  1  0.93948463  0.17493851  0.09714285  1  0  0.200173  0.559578  0  4.262389  0
C  C27  1  0.43949262  0.82506142  0.90285852  1  0  0.200145  0.559442  0  4.262606  0
O  O28  1  0.06694513  0.60623178  0.20713569  1  0  -0.318139  -0.610905  0  2.20267  0
O  O29  1  0.56693777  0.39376100  0.79286335  1  0  -0.31817  -0.610964  0  2.202842  0
O  O30  1  0.70759405  0.63778576  0.20315575  1  0  -0.320044  -0.617665  0  2.219975  0
O  O31  1  0.20758106  0.36221573  0.79684120  1  0  -0.320114  -0.617766  0  2.219929  0
O  O32  1  0.87072029  0.28253746  0.02717024  1  0  -0.299132  -0.584369  0  2.278459  0
O  O33  1  0.37071733  0.71746083  0.97283253  1  0  -0.299133  -0.584337  0  2.278429  0
O  O34  1  0.04901838  0.03309765  0.05527096  1  0  -0.309838  -0.606825  0  2.252765  0
O  O35  1  0.54901706  0.96690183  0.94472887  1  0  -0.309789  -0.606696  0  2.252878  0
