# generated using pymatgen
data_CuSiH4C8S4(N2F3)2
_symmetry_space_group_name_H-M   'P 1'
_cell_length_a   7.73034902
_cell_length_b   8.54343697
_cell_length_c   8.54341866
_cell_angle_alpha   92.11805943
_cell_angle_beta   84.46549510
_cell_angle_gamma   84.46472621
_symmetry_Int_Tables_number   1
_chemical_formula_structural   CuSiH4C8S4(N2F3)2
_chemical_formula_sum   'Cu1 Si1 H4 C8 S4 N4 F6'
_cell_volume   558.38052708
_cell_formula_units_Z   1
loop_
 _symmetry_equiv_pos_site_id
 _symmetry_equiv_pos_as_xyz
  1  'x, y, z'
loop_
 _atom_site_type_symbol
 _atom_site_label
 _atom_site_symmetry_multiplicity
 _atom_site_fract_x
 _atom_site_fract_y
 _atom_site_fract_z
 _atom_site_occupancy
 _atom_site_pbe_bader_charge
 _atom_site_pbe_bader_spin_density
 _atom_site_pbe_cm5_charge
 _atom_site_pbe_ddec_charge
 _atom_site_pbe_ddec_spin_density
 _atom_site_pbe_ddec_sum_bond_order
 _atom_site_pbe_magmom
Cu  Cu0  1  0.50003288  0.49998241  0.49997498  1  1.121738  0.594267  0.807761  0.790091  0.741249  2.314379  0.592
Si  Si1  1  0.00002439  0.49999777  0.50000384  1  3.238548  -0.000132  0.242618  1.717268  -0.000265  3.948584  0.0
H  H2  1  0.24237494  0.57641120  0.24992921  1  0.255362  0.001044  0.12752  0.140295  0.000443  1.031154  0.001
H  H3  1  0.75761091  0.42358481  0.75006153  1  0.255352  0.001045  0.127394  0.13997  0.000444  1.031316  0.001
H  H4  1  0.24236462  0.24993532  0.57642040  1  0.255127  0.001046  0.127483  0.140214  0.000445  1.031191  0.001
H  H5  1  0.75761861  0.75007135  0.42357423  1  0.255364  0.001046  0.127391  0.140047  0.000444  1.031057  0.001
C  C6  1  0.36966455  0.53951716  0.18545908  1  0.540748  -0.00135  0.058866  0.086895  -0.002073  3.858833  0.0
C  C7  1  0.63030805  0.46047967  0.81452846  1  0.540077  -0.001352  0.058948  0.08716  -0.002075  3.859292  0.0
C  C8  1  0.58876866  0.47378257  0.97952560  1  -0.161137  0.006668  -0.011919  -0.066071  0.00441  4.041304  0.005
C  C9  1  0.41120958  0.52621886  0.02045315  1  -0.21951  0.006703  -0.012075  -0.066383  0.004411  4.041324  0.005
C  C10  1  0.36967350  0.18546295  0.53952246  1  0.540945  -0.001348  0.058891  0.086951  -0.002071  3.859311  0.0
C  C11  1  0.63030722  0.81453436  0.46047706  1  0.540147  -0.001351  0.058948  0.087157  -0.002074  3.859066  0.0
C  C12  1  0.58877177  0.97953394  0.47378225  1  -0.220044  0.006701  -0.011961  -0.066275  0.00441  4.041353  0.005
C  C13  1  0.41120525  0.02046349  0.52622470  1  -0.16068  0.006672  -0.012022  -0.066246  0.004412  4.041295  0.005
S  S14  1  0.69288569  0.44640774  0.14603842  1  0.686435  0.008687  0.258675  0.319993  0.006305  2.868782  0.006
S  S15  1  0.30709119  0.55357347  0.85393445  1  0.685723  0.008701  0.258696  0.320104  0.006312  2.868814  0.006
S  S16  1  0.69288086  0.14604490  0.44641281  1  0.682729  0.008684  0.25872  0.320066  0.006305  2.868965  0.006
S  S17  1  0.30710139  0.85394058  0.55358410  1  0.682532  0.008693  0.258693  0.320082  0.006311  2.868698  0.006
N  N18  1  0.50685755  0.49942219  0.26311350  1  -1.125534  0.087046  -0.339575  -0.297777  0.056397  3.50513  0.075
N  N19  1  0.49312765  0.50055570  0.73686077  1  -1.124796  0.087047  -0.339494  -0.297872  0.056398  3.505206  0.075
N  N20  1  0.50684638  0.26311532  0.49943151  1  -1.125591  0.087059  -0.339551  -0.297737  0.056404  3.505396  0.075
N  N21  1  0.49314065  0.73687119  0.50055551  1  -1.125106  0.087046  -0.339523  -0.297914  0.056395  3.505151  0.075
F  F22  1  0.20316592  0.54996486  0.54996222  1  -0.833533  -0.001511  -0.222801  -0.539006  -0.00161  1.324637  0.0
F  F23  1  0.79690585  0.44999011  0.45001276  1  -0.833642  -0.001514  -0.222992  -0.53904  -0.001611  1.324393  0.0
F  F24  1  0.00003880  0.36022244  0.63982412  1  -0.837553  0.000309  -0.237398  -0.5345  0.000262  1.124497  0.0
F  F25  1  0.00001216  0.63982637  0.36023529  1  -0.837464  0.000308  -0.237365  -0.53448  0.000262  1.1245  0.0
F  F26  1  0.89812997  0.63607670  0.63609237  1  -0.83823  -0.000106  -0.251917  -0.546484  -0.000119  1.101056  0.0
F  F27  1  0.10193558  0.36393212  0.36391772  1  -0.83801  -0.000107  -0.252011  -0.546508  -0.00012  1.100914  0.0
