# generated using pymatgen
data_FeH3(CN2)4
_symmetry_space_group_name_H-M   'P 1'
_cell_length_a   5.54775630
_cell_length_b   7.44679035
_cell_length_c   8.87222930
_cell_angle_alpha   89.39869784
_cell_angle_beta   88.33683871
_cell_angle_gamma   68.14179080
_symmetry_Int_Tables_number   1
_chemical_formula_structural   FeH3(CN2)4
_chemical_formula_sum   'Fe2 H6 C8 N16'
_cell_volume   340.04374042
_cell_formula_units_Z   2
loop_
 _symmetry_equiv_pos_site_id
 _symmetry_equiv_pos_as_xyz
  1  'x, y, z'
loop_
 _atom_site_type_symbol
 _atom_site_label
 _atom_site_symmetry_multiplicity
 _atom_site_fract_x
 _atom_site_fract_y
 _atom_site_fract_z
 _atom_site_occupancy
 _atom_site_hse06_10hf_bader_spin_density
 _atom_site_hse06_10hf_ddec_charge
 _atom_site_hse06_10hf_ddec_spin_density
 _atom_site_hse06_10hf_ddec_sum_bond_order
 _atom_site_hse06_10hf_magmom
 _atom_site_hse06_bader_spin_density
 _atom_site_hse06_ddec_charge
 _atom_site_hse06_ddec_spin_density
 _atom_site_hse06_ddec_sum_bond_order
 _atom_site_hse06_magmom
 _atom_site_pbe_bader_spin_density
 _atom_site_pbe_cm5_charge
 _atom_site_pbe_ddec_charge
 _atom_site_pbe_ddec_spin_density
 _atom_site_pbe_ddec_sum_bond_order
 _atom_site_pbe_magmom
Fe  Fe0  1  0.19242267  0.61524399  0.00001631  1  0  0.498705  0  3.620988  0  0  0.529989  0  3.582796  0  0  0.786073  0.485283  0  3.638889  0
Fe  Fe1  1  0.80759018  0.38475515  0.99998349  1  0  0.498696  0  3.621269  0  0  0.529977  0  3.583096  0  0  0.786137  0.485257  0  3.63912  0
H  H2  1  0.93789712  0.68874367  0.33547116  1  0  0.091884  0  1.03921  0  0  0.097766  0  1.030618  0  0  0.124847  0.087509  0  1.045734  0
H  H3  1  0.37386441  0.68850376  0.66460920  1  0  0.092341  0  1.039801  0  0  0.098208  0  1.031251  0  0  0.124923  0.088033  0  1.046244  0
H  H4  1  0.06209572  0.31125547  0.66452606  1  0  0.091866  0  1.039312  0  0  0.097744  0  1.030725  0  0  0.124831  0.087485  0  1.045839  0
H  H5  1  0.62613564  0.31149538  0.33538772  1  0  0.092336  0  1.039865  0  0  0.098204  0  1.031313  0  0  0.124931  0.088017  0  1.046309  0
H  H6  1  0.71648914  0.00017487  0.47156420  1  0  0.127639  0  1.038475  0  0  0.132418  0  1.034958  0  0  0.112348  0.124378  0  1.041205  0
H  H7  1  0.28348393  0.99982716  0.52842811  1  0  0.127619  0  1.038457  0  0  0.1324  0  1.034939  0  0  0.112335  0.124356  0  1.041188  0
C  C8  1  0.90023879  0.82562712  0.27822757  1  0  0.117426  0  3.885433  0  0  0.140869  0  3.882472  0  0  0.049472  0.101159  0  3.889021  0
C  C9  1  0.27443278  0.82542630  0.72182158  1  0  0.115977  0  3.886395  0  0  0.13944  0  3.883514  0  0  0.049168  0.099698  0  3.88988  0
C  C10  1  0.09975663  0.17437347  0.72176388  1  0  0.117432  0  3.885431  0  0  0.14087  0  3.882482  0  0  0.049506  0.101169  0  3.889008  0
C  C11  1  0.72555865  0.17456995  0.27818928  1  0  0.115974  0  3.886333  0  0  0.139434  0  3.883463  0  0  0.0491  0.099707  0  3.889797  0
C  C12  1  0.77592830  0.00013341  0.35376377  1  0  -0.159401  0  3.94927  0  0  -0.164259  0  3.952278  0  0  -0.077362  -0.157534  0  3.949201  0
C  C13  1  0.22405053  0.99987586  0.64623492  1  0  -0.159381  0  3.949144  0  0  -0.164237  0  3.952147  0  0  -0.077331  -0.157519  0  3.94909  0
C  C14  1  0.94052080  0.00002785  0.07123020  1  0  0.252588  0  3.98842  0  0  0.276274  0  3.982976  0  0  0.224123  0.237347  0  3.992012  0
C  C15  1  0.05949181  0.99997128  0.92876510  1  0  0.252395  0  3.98873  0  0  0.276053  0  3.983312  0  0  0.224143  0.237331  0  3.99217  0
N  N16  1  0.98159702  0.82371614  0.13248993  1  0  -0.230016  0  3.596573  0  0  -0.244975  0  3.598808  0  0  -0.33923  -0.221614  0  3.594638  0
N  N17  1  0.19488596  0.82363615  0.86754449  1  0  -0.229975  0  3.597383  0  0  -0.245114  0  3.599854  0  0  -0.339541  -0.221591  0  3.595401  0
N  N18  1  0.01840372  0.17628300  0.86751938  1  0  -0.229982  0  3.596578  0  0  -0.244934  0  3.59883  0  0  -0.339294  -0.221611  0  3.59457  0
N  N19  1  0.80512139  0.17637311  0.13244744  1  0  -0.230054  0  3.596873  0  0  -0.245215  0  3.599368  0  0  -0.339499  -0.221625  0  3.594907  0
N  N20  1  0.09956846  0.41432721  0.11458854  1  0  -0.435199  0  3.360027  0  0  -0.468472  0  3.377217  0  0  -0.326187  -0.414569  0  3.347336  0
N  N21  1  0.48609440  0.41426398  0.88540100  1  0  -0.434469  0  3.3597  0  0  -0.467646  0  3.376726  0  0  -0.326357  -0.413919  0  3.347136  0
N  N22  1  0.90044429  0.58566904  0.88541584  1  0  -0.435226  0  3.360109  0  0  -0.468503  0  3.377296  0  0  -0.326187  -0.414591  0  3.347416  0
N  N23  1  0.51392163  0.58573950  0.11459746  1  0  -0.434487  0  3.359359  0  0  -0.467666  0  3.376381  0  0  -0.326303  -0.413929  0  3.346793  0
N  N24  1  0.12884837  0.36255510  0.24554982  1  0  0.406651  0  4.384259  0  0  0.421526  0  4.424651  0  0  0.097539  0.396646  0  4.357204  0
N  N25  1  0.50853170  0.36247279  0.75442494  1  0  0.405846  0  4.385317  0  0  0.420723  0  4.425755  0  0  0.097715  0.39584  0  4.358249  0
N  N26  1  0.87115337  0.63744838  0.75445146  1  0  0.406636  0  4.384607  0  0  0.421513  0  4.424997  0  0  0.09754  0.396644  0  4.357549  0
N  N27  1  0.49147420  0.63752635  0.24557964  1  0  0.40596  0  4.38512  0  0  0.420836  0  4.425548  0  0  0.097733  0.395962  0  4.358061  0
N  N28  1  0.15399817  0.30818244  0.36954649  1  0  -0.310087  0  2.637588  0  0  -0.333424  0  2.658201  0  0  -0.128758  -0.293485  0  2.62339  0
N  N29  1  0.53766898  0.30809943  0.63039449  1  0  -0.309805  0  2.638681  0  0  -0.333185  0  2.659346  0  0  -0.128832  -0.293169  0  2.624419  0
N  N30  1  0.84599692  0.69182104  0.63046521  1  0  -0.309993  0  2.637939  0  0  -0.333328  0  2.658553  0  0  -0.12871  -0.293402  0  2.623747  0
N  N31  1  0.46233259  0.69188958  0.36960370  1  0  -0.309897  0  2.63883  0  0  -0.333283  0  2.659506  0  0  -0.128871  -0.293265  0  2.624578  0
