# generated using pymatgen
data_HgH4C6(SN2)2
_symmetry_space_group_name_H-M   'P 1'
_cell_length_a   7.23884009
_cell_length_b   7.24560576
_cell_length_c   10.41671916
_cell_angle_alpha   99.39184130
_cell_angle_beta   106.03418770
_cell_angle_gamma   111.55770697
_symmetry_Int_Tables_number   1
_chemical_formula_structural   HgH4C6(SN2)2
_chemical_formula_sum   'Hg2 H8 C12 S4 N8'
_cell_volume   466.46777332
_cell_formula_units_Z   2
loop_
 _symmetry_equiv_pos_site_id
 _symmetry_equiv_pos_as_xyz
  1  'x, y, z'
loop_
 _atom_site_type_symbol
 _atom_site_label
 _atom_site_symmetry_multiplicity
 _atom_site_fract_x
 _atom_site_fract_y
 _atom_site_fract_z
 _atom_site_occupancy
 _atom_site_hle17_bader_spin_density
 _atom_site_hle17_ddec_charge
 _atom_site_hle17_ddec_spin_density
 _atom_site_hle17_ddec_sum_bond_order
 _atom_site_hle17_magmom
 _atom_site_hse06_10hf_bader_spin_density
 _atom_site_hse06_10hf_ddec_charge
 _atom_site_hse06_10hf_ddec_spin_density
 _atom_site_hse06_10hf_ddec_sum_bond_order
 _atom_site_hse06_10hf_magmom
 _atom_site_hse06_bader_spin_density
 _atom_site_hse06_ddec_charge
 _atom_site_hse06_ddec_spin_density
 _atom_site_hse06_ddec_sum_bond_order
 _atom_site_hse06_magmom
 _atom_site_pbe_bader_spin_density
 _atom_site_pbe_cm5_charge
 _atom_site_pbe_ddec_charge
 _atom_site_pbe_ddec_spin_density
 _atom_site_pbe_ddec_sum_bond_order
 _atom_site_pbe_magmom
Hg  Hg0  1  0.64010649  0.89029115  0.75010168  1  0  0.692438  0  2.091106  0  0  0.554796  0  2.564331  0  0  0.599578  0  2.537912  0  0  0.555284  0.525166  0  2.580935  0
Hg  Hg1  1  0.35988994  0.10971104  0.24989636  1  0  0.692479  0  2.091095  0  0  0.554852  0  2.564313  0  0  0.599631  0  2.537896  0  0  0.555308  0.525223  0  2.58092  0
H  H2  1  0.42429416  0.67183061  0.96663110  1  0  0.090458  0  0.973705  0  0  0.092673  0  1.048789  0  0  0.095254  0  1.047263  0  0  0.108212  0.090631  0  1.050108  0
H  H3  1  0.20569917  0.45842414  0.53360740  1  0  0.089462  0  0.973672  0  0  0.091404  0  1.049157  0  0  0.093991  0  1.047614  0  0  0.107935  0.089719  0  1.050009  0
H  H4  1  0.57570150  0.32817311  0.03336504  1  0  0.090491  0  0.973681  0  0  0.092685  0  1.048785  0  0  0.095268  0  1.047257  0  0  0.108204  0.090646  0  1.0501  0
H  H5  1  0.79430838  0.54156734  0.46639253  1  0  0.089549  0  0.973546  0  0  0.091452  0  1.049069  0  0  0.094039  0  1.047526  0  0  0.107942  0.089766  0  1.04992  0
H  H6  1  0.11178887  0.36287949  0.96695034  1  0  0.081301  0  0.955387  0  0  0.086422  0  1.02504  0  0  0.088174  0  1.024971  0  0  0.108992  0.085059  0  1.025509  0
H  H7  1  0.89669744  0.14505925  0.53290322  1  0  0.081326  0  0.953475  0  0  0.086074  0  1.023498  0  0  0.087906  0  1.023302  0  0  0.108977  0.084352  0  1.024524  0
H  H8  1  0.88821188  0.63712274  0.03304661  1  0  0.081374  0  0.955279  0  0  0.086502  0  1.024915  0  0  0.088251  0  1.024844  0  0  0.10903  0.08514  0  1.025384  0
H  H9  1  0.10330570  0.85493529  0.46709620  1  0  0.081389  0  0.953455  0  0  0.08612  0  1.023501  0  0  0.087955  0  1.023296  0  0  0.108985  0.0844  0  1.024522  0
C  C10  1  0.30483199  0.55333082  0.86997312  1  0  0.071655  0  3.678284  0  0  0.044809  0  3.930127  0  0  0.047116  0  3.949083  0  0  0.048586  0.043263  0  3.917652  0
C  C11  1  0.18360139  0.43528745  0.63017483  1  0  0.072435  0  3.676868  0  0  0.046093  0  3.928474  0  0  0.048361  0  3.947492  0  0  0.049514  0.044397  0  3.915759  0
C  C12  1  0.69516886  0.44666832  0.13002446  1  0  0.071616  0  3.678394  0  0  0.044774  0  3.930241  0  0  0.047081  0  3.949195  0  0  0.048592  0.043229  0  3.917762  0
C  C13  1  0.81640455  0.56471021  0.36982644  1  0  0.072299  0  3.676836  0  0  0.046  0  3.928454  0  0  0.048268  0  3.947475  0  0  0.049459  0.044304  0  3.915741  0
C  C14  1  0.13204680  0.38250056  0.86928047  1  0  0.081922  0  3.687959  0  0  0.057541  0  3.943972  0  0  0.05928  0  3.962837  0  0  0.051046  0.05614  0  3.931459  0
C  C15  1  0.01362154  0.26295215  0.63068823  1  0  0.08281  0  3.688334  0  0  0.058739  0  3.944133  0  0  0.060433  0  3.963042  0  0  0.050705  0.057506  0  3.931844  0
C  C16  1  0.86795405  0.61749859  0.13071903  1  0  0.081874  0  3.687963  0  0  0.057509  0  3.943953  0  0  0.059255  0  3.96281  0  0  0.051038  0.056107  0  3.931447  0
C  C17  1  0.98638228  0.73704393  0.36931054  1  0  0.082699  0  3.688408  0  0  0.058627  0  3.944197  0  0  0.060322  0  3.963107  0  0  0.0507  0.057394  0  3.931908  0
C  C18  1  0.09182142  0.88753043  0.88877645  1  0  0.256908  0  3.954059  0  0  0.240197  0  4.261004  0  0  0.259873  0  4.276528  0  0  0.137793  0.227112  0  4.249169  0
C  C19  1  0.49874527  0.20306541  0.61120566  1  0  0.255279  0  3.950692  0  0  0.238452  0  4.257169  0  0  0.257963  0  4.272882  0  0  0.138236  0.22541  0  4.246373  0
C  C20  1  0.90816514  0.11246236  0.11121384  1  0  0.257004  0  3.954638  0  0  0.240297  0  4.261558  0  0  0.25997  0  4.27708  0  0  0.137874  0.227213  0  4.249729  0
C  C21  1  0.50125849  0.79696007  0.38880023  1  0  0.255091  0  3.950613  0  0  0.238242  0  4.257118  0  0  0.257755  0  4.272839  0  0  0.138117  0.225199  0  4.246321  0
S  S22  1  0.87928371  0.70836355  0.75758152  1  0  -0.205865  0  2.30758  0  0  -0.180531  0  2.667573  0  0  -0.198209  0  2.665273  0  0  -0.08827  -0.16852  0  2.668549  0
S  S23  1  0.45059487  0.12179179  0.74245720  1  0  -0.205575  0  2.307603  0  0  -0.179779  0  2.667512  0  0  -0.197248  0  2.665064  0  0  -0.088354  -0.167868  0  2.668599  0
S  S24  1  0.12071291  0.29163249  0.24242258  1  0  -0.205945  0  2.307369  0  0  -0.180609  0  2.667342  0  0  -0.198286  0  2.665039  0  0  -0.088292  -0.168599  0  2.668324  0
S  S25  1  0.54940014  0.87821043  0.25755017  1  0  -0.205434  0  2.307881  0  0  -0.179645  0  2.667835  0  0  -0.197098  0  2.66536  0  0  -0.08829  -0.16772  0  2.668896  0
N  N26  1  0.32864764  0.57881797  0.75010950  1  0  -0.245401  0  3.22255  0  0  -0.17878  0  3.482291  0  0  -0.194864  0  3.503891  0  0  -0.291871  -0.168053  0  3.46768  0
N  N27  1  0.67135397  0.42117964  0.24988902  1  0  -0.245364  0  3.222571  0  0  -0.178747  0  3.482292  0  0  -0.194833  0  3.5039  0  0  -0.291861  -0.16802  0  3.467686  0
N  N28  1  0.98730318  0.23705593  0.74992728  1  0  -0.274545  0  3.180237  0  0  -0.222278  0  3.444056  0  0  -0.235728  0  3.465198  0  0  -0.294442  -0.213161  0  3.42935  0
N  N29  1  0.01269775  0.76294011  0.25006997  1  0  -0.27449  0  3.180269  0  0  -0.222239  0  3.44412  0  0  -0.235692  0  3.465266  0  0  -0.294448  -0.213125  0  3.429424  0
N  N30  1  0.24912004  0.01181114  0.98164365  1  0  -0.462826  0  2.767798  0  0  -0.418475  0  3.03018  0  0  -0.436569  0  3.039951  0  0  -0.350945  -0.405987  0  3.02232  0
N  N31  1  0.53016619  0.26734753  0.51829418  1  0  -0.461847  0  2.765078  0  0  -0.417415  0  3.027024  0  0  -0.435375  0  3.036752  0  0  -0.351414  -0.40523  0  3.020127  0
N  N32  1  0.75088914  0.98820047  0.01835981  1  0  -0.462812  0  2.768634  0  0  -0.41848  0  3.031055  0  0  -0.436575  0  3.040824  0  0  -0.350989  -0.405994  0  3.023196  0
N  N33  1  0.46983248  0.73265319  0.48171564  1  0  -0.461755  0  2.764582  0  0  -0.417283  0  3.026484  0  0  -0.435246  0  3.036218  0  0  -0.351353  -0.405096  0  3.019584  0
