# generated using pymatgen
data_AgH2(C2O)2
_symmetry_space_group_name_H-M   'P 1'
_cell_length_a   6.12877867
_cell_length_b   7.49834442
_cell_length_c   8.93805158
_cell_angle_alpha   90.00088427
_cell_angle_beta   89.99930552
_cell_angle_gamma   111.21466888
_symmetry_Int_Tables_number   1
_chemical_formula_structural   AgH2(C2O)2
_chemical_formula_sum   'Ag4 H8 C16 O8'
_cell_volume   382.91802228
_cell_formula_units_Z   4
loop_
 _symmetry_equiv_pos_site_id
 _symmetry_equiv_pos_as_xyz
  1  'x, y, z'
loop_
 _atom_site_type_symbol
 _atom_site_label
 _atom_site_symmetry_multiplicity
 _atom_site_fract_x
 _atom_site_fract_y
 _atom_site_fract_z
 _atom_site_occupancy
 _atom_site_hle17_bader_spin_density
 _atom_site_hle17_ddec_charge
 _atom_site_hle17_ddec_spin_density
 _atom_site_hle17_ddec_sum_bond_order
 _atom_site_hle17_magmom
 _atom_site_hse06_10hf_bader_spin_density
 _atom_site_hse06_10hf_ddec_charge
 _atom_site_hse06_10hf_ddec_spin_density
 _atom_site_hse06_10hf_ddec_sum_bond_order
 _atom_site_hse06_10hf_magmom
 _atom_site_hse06_bader_spin_density
 _atom_site_hse06_ddec_charge
 _atom_site_hse06_ddec_spin_density
 _atom_site_hse06_ddec_sum_bond_order
 _atom_site_hse06_magmom
 _atom_site_pbe_bader_spin_density
 _atom_site_pbe_cm5_charge
 _atom_site_pbe_ddec_charge
 _atom_site_pbe_ddec_spin_density
 _atom_site_pbe_ddec_sum_bond_order
 _atom_site_pbe_magmom
Ag  Ag0  1  0.11017297  0.08622690  0.63165790  1  0  0.605298  0  1.395748  0  0  0.49649  0  1.84087  0  0  0.527648  0  1.787116  0  0  0.432333  0.476105  0  1.876737  0
Ag  Ag1  1  0.38981612  0.91377180  0.13165826  1  0  0.605246  0  1.395738  0  0  0.496471  0  1.840846  0  0  0.527627  0  1.787096  0  0  0.432308  0.476083  0  1.876716  0
Ag  Ag2  1  0.88982067  0.91377984  0.36834756  1  0  0.605284  0  1.395748  0  0  0.496492  0  1.84088  0  0  0.52765  0  1.787125  0  0  0.43233  0.476106  0  1.87675  0
Ag  Ag3  1  0.61017403  0.08623064  0.86834272  1  0  0.605225  0  1.39576  0  0  0.496443  0  1.840894  0  0  0.527601  0  1.787142  0  0  0.432312  0.476059  0  1.876758  0
H  H4  1  0.18025423  0.46268720  0.31773368  1  0  0.106349  0  0.962325  0  0  0.117334  0  1.022141  0  0  0.119506  0  1.02266  0  0  0.102634  0.115839  0  1.021891  0
H  H5  1  0.31974620  0.53733012  0.81771279  1  0  0.106355  0  0.962334  0  0  0.117415  0  1.02206  0  0  0.119599  0  1.022559  0  0  0.102654  0.11592  0  1.021809  0
H  H6  1  0.81975023  0.53730682  0.68227625  1  0  0.106365  0  0.962157  0  0  0.117349  0  1.021979  0  0  0.119517  0  1.0225  0  0  0.102627  0.115853  0  1.021729  0
H  H7  1  0.68027101  0.46268966  0.18228819  1  0  0.106352  0  0.962379  0  0  0.117395  0  1.022133  0  0  0.119585  0  1.022624  0  0  0.102658  0.115899  0  1.021882  0
H  H8  1  0.63274581  0.78046502  0.67055682  1  0  0.101172  0  1.002202  0  0  0.102786  0  1.080887  0  0  0.107634  0  1.075707  0  0  0.097196  0.099406  0  1.084374  0
H  H9  1  0.86726839  0.21952979  0.17054725  1  0  0.101206  0  1.002202  0  0  0.102807  0  1.0809  0  0  0.107655  0  1.075719  0  0  0.097192  0.099425  0  1.084389  0
H  H10  1  0.36724472  0.21952317  0.32943857  1  0  0.101076  0  1.002178  0  0  0.102763  0  1.080798  0  0  0.10761  0  1.075617  0  0  0.097149  0.099383  0  1.084281  0
H  H11  1  0.13273242  0.78047844  0.82945262  1  0  0.10121  0  1.002144  0  0  0.10279  0  1.080873  0  0  0.107638  0  1.07569  0  0  0.097145  0.099408  0  1.084363  0
C  C12  1  0.27448701  0.77984242  0.48738865  1  0  0.65196  0  3.880459  0  0  0.598921  0  4.160429  0  0  0.634495  0  4.156683  0  0  0.209265  0.575002  0  4.162459  0
C  C13  1  0.22551709  0.22015614  0.98737786  1  0  0.651813  0  3.88102  0  0  0.598842  0  4.16088  0  0  0.634423  0  4.157138  0  0  0.20923  0.57492  0  4.162912  0
C  C14  1  0.72551581  0.22015158  0.51261121  1  0  0.651981  0  3.880409  0  0  0.598886  0  4.160478  0  0  0.634464  0  4.156728  0  0  0.209236  0.574965  0  4.162514  0
C  C15  1  0.77448474  0.77985068  0.01261976  1  0  0.651968  0  3.88077  0  0  0.598934  0  4.160741  0  0  0.634513  0  4.156995  0  0  0.209197  0.575011  0  4.162778  0
C  C16  1  0.39565339  0.63867837  0.49128181  1  0  -0.056041  0  3.737163  0  0  -0.033172  0  3.968033  0  0  -0.039293  0  3.988489  0  0  -0.018218  -0.029122  0  3.954397  0
C  C17  1  0.10436031  0.36132746  0.99128171  1  0  -0.055908  0  3.737214  0  0  -0.033028  0  3.968014  0  0  -0.039154  0  3.988476  0  0  -0.018166  -0.028981  0  3.954381  0
C  C18  1  0.60435148  0.36131280  0.50871582  1  0  -0.055927  0  3.737111  0  0  -0.033033  0  3.967999  0  0  -0.039157  0  3.988455  0  0  -0.018194  -0.028987  0  3.954368  0
C  C19  1  0.89564624  0.63868652  0.00871927  1  0  -0.056038  0  3.737172  0  0  -0.033145  0  3.96802  0  0  -0.039273  0  3.98848  0  0  -0.018216  -0.029097  0  3.954388  0
C  C20  1  0.32053338  0.47851886  0.39717333  1  0  -0.048778  0  3.685667  0  0  -0.073617  0  3.933344  0  0  -0.073753  0  3.952722  0  0  -0.082876  -0.073873  0  3.920604  0
C  C21  1  0.17947252  0.52148404  0.89716572  1  0  -0.048897  0  3.685695  0  0  -0.07379  0  3.933336  0  0  -0.073932  0  3.952707  0  0  -0.082946  -0.074044  0  3.920597  0
C  C22  1  0.67947292  0.52146805  0.60282765  1  0  -0.048865  0  3.68554  0  0  -0.073723  0  3.933269  0  0  -0.073849  0  3.95264  0  0  -0.082872  -0.073984  0  3.920544  0
C  C23  1  0.82052418  0.47851845  0.10282519  1  0  -0.048786  0  3.685702  0  0  -0.07367  0  3.933337  0  0  -0.073816  0  3.952707  0  0  -0.082862  -0.073926  0  3.920598  0
C  C24  1  0.57706966  0.65960381  0.59390869  1  0  -0.11283  0  3.776345  0  0  -0.128055  0  4.028725  0  0  -0.129073  0  4.044862  0  0  -0.09642  -0.127367  0  4.017997  0
C  C25  1  0.92293512  0.34039260  0.09390357  1  0  -0.112885  0  3.776621  0  0  -0.128106  0  4.029004  0  0  -0.129125  0  4.045147  0  0  -0.096422  -0.127416  0  4.018276  0
C  C26  1  0.42293397  0.34038450  0.40609117  1  0  -0.112824  0  3.776393  0  0  -0.128123  0  4.028801  0  0  -0.12914  0  4.044939  0  0  -0.096361  -0.127432  0  4.018072  0
C  C27  1  0.07706055  0.65961131  0.90609181  1  0  -0.112919  0  3.77649  0  0  -0.128125  0  4.028872  0  0  -0.129141  0  4.045013  0  0  -0.096365  -0.127434  0  4.018143  0
O  O28  1  0.28828293  0.87997835  0.60426259  1  0  -0.611485  0  2.131905  0  0  -0.530403  0  2.404349  0  0  -0.563289  0  2.394405  0  0  -0.313287  -0.508315  0  2.410102  0
O  O29  1  0.21171770  0.12001576  0.10424856  1  0  -0.611332  0  2.13202  0  0  -0.530388  0  2.404604  0  0  -0.563273  0  2.394655  0  0  -0.313261  -0.508297  0  2.41036  0
O  O30  1  0.71170862  0.12000843  0.39573951  1  0  -0.611483  0  2.131877  0  0  -0.530421  0  2.404396  0  0  -0.563305  0  2.394447  0  0  -0.313296  -0.50833  0  2.410152  0
O  O31  1  0.78827448  0.87998385  0.89574907  1  0  -0.611369  0  2.131911  0  0  -0.530419  0  2.404535  0  0  -0.563305  0  2.394586  0  0  -0.313263  -0.50833  0  2.410291  0
O  O32  1  0.16021080  0.78463636  0.36803877  1  0  -0.63563  0  2.164821  0  0  -0.550233  0  2.451332  0  0  -0.583834  0  2.440118  0  0  -0.330629  -0.527623  0  2.458127  0
O  O33  1  0.33979460  0.21537179  0.86802472  1  0  -0.635584  0  2.165124  0  0  -0.550215  0  2.451636  0  0  -0.583804  0  2.440387  0  0  -0.330612  -0.527601  0  2.458422  0
O  O34  1  0.83978466  0.21536327  0.63196445  1  0  -0.635657  0  2.164949  0  0  -0.550229  0  2.451486  0  0  -0.583833  0  2.440274  0  0  -0.330626  -0.527617  0  2.458281  0
O  O35  1  0.66021174  0.78463792  0.13197291  1  0  -0.63562  0  2.164916  0  0  -0.550223  0  2.451438  0  0  -0.583815  0  2.440203  0  0  -0.330576  -0.527608  0  2.458229  0
