# generated using pymatgen
data_V4Cu3H4C4(NO2)6
_symmetry_space_group_name_H-M   'P 1'
_cell_length_a   7.59035429
_cell_length_b   7.84305150
_cell_length_c   8.43588109
_cell_angle_alpha   63.14836862
_cell_angle_beta   64.69491551
_cell_angle_gamma   66.81658449
_symmetry_Int_Tables_number   1
_chemical_formula_structural   V4Cu3H4C4(NO2)6
_chemical_formula_sum   'V4 Cu3 H4 C4 N6 O12'
_cell_volume   392.33131236
_cell_formula_units_Z   1
loop_
 _symmetry_equiv_pos_site_id
 _symmetry_equiv_pos_as_xyz
  1  'x, y, z'
loop_
 _atom_site_type_symbol
 _atom_site_label
 _atom_site_symmetry_multiplicity
 _atom_site_fract_x
 _atom_site_fract_y
 _atom_site_fract_z
 _atom_site_occupancy
 _atom_site_hle17_ddec_charge
 _atom_site_hle17_ddec_spin_density
 _atom_site_hle17_ddec_sum_bond_order
 _atom_site_hle17_magmom
 _atom_site_hse06_10hf_ddec_charge
 _atom_site_hse06_10hf_ddec_spin_density
 _atom_site_hse06_10hf_ddec_sum_bond_order
 _atom_site_hse06_10hf_magmom
 _atom_site_hse06_ddec_charge
 _atom_site_hse06_ddec_spin_density
 _atom_site_hse06_ddec_sum_bond_order
 _atom_site_hse06_magmom
 _atom_site_pbe_cm5_charge
 _atom_site_pbe_ddec_charge
 _atom_site_pbe_ddec_spin_density
 _atom_site_pbe_ddec_sum_bond_order
 _atom_site_pbe_magmom
V  V0  1  0.39343319  0.97841014  0.77152296  1  1.996153  -0.014903  2.948543  -0.018  2.073353  0.012456  3.328683  0.02  2.171262  0.007067  3.306009  0.012  1.456046  1.993232  0.0179  3.369817  0.027
V  V1  1  0.60686019  0.02284485  0.22795789  1  1.993116  0.012459  2.9507  0.017  2.070025  0.006963  3.331708  0.01  2.168603  0.005313  3.308999  0.008  1.45585  1.9881  0.009025  3.373403  0.013
V  V2  1  0.18425666  0.17561281  0.12053540  1  1.997561  0.00523  2.998793  0.004  2.080589  -0.011763  3.376768  -0.02  2.17668  -0.009597  3.357839  -0.017  1.456605  2.000762  -0.012167  3.416426  -0.02
V  V3  1  0.81510383  0.82531353  0.87923331  1  1.996189  -0.018118  2.998013  -0.02  2.079455  0.008123  3.375833  0.015  2.175381  0.005636  3.357121  0.011  1.455853  1.998821  0.010437  3.417206  0.018
Cu  Cu4  1  0.50025128  0.49947072  0.99976405  1  0.939155  0.659178  1.941995  0.487  0.95311  0.768346  2.324716  0.621  1.036084  0.849332  2.251175  0.713  0.786213  0.901546  0.671397  2.372837  0.529
Cu  Cu5  1  0.31687740  0.63936832  0.67710516  1  0.972264  0.702443  1.814749  0.521  0.976209  0.78891  2.204376  0.637  1.060734  0.861889  2.134859  0.723  0.790105  0.918716  0.716937  2.256021  0.564
Cu  Cu6  1  0.68273720  0.35740467  0.32530892  1  0.970618  -0.678767  1.820888  -0.484  0.97281  -0.788165  2.212439  -0.625  1.058015  -0.882216  2.142167  -0.718  0.791717  0.917496  -0.666392  2.261771  -0.52
H  H7  1  0.04063581  0.72524677  0.17945929  1  0.132038  -0.000172  0.942151  0.0  0.142101  6.1e-05  0.998312  0.0  0.144704  5.7e-05  0.99633  0.0  0.136178  0.139782  3.1e-05  1.000046  0.0
H  H8  1  0.95936052  0.27373156  0.82081359  1  0.13257  8.1e-05  0.942101  0.0  0.142534  0.000184  0.998319  0.001  0.145061  0.000128  0.996327  0.0  0.136584  0.14044  0.00019  0.99989  0.0
H  H9  1  0.96171697  0.77212443  0.51437623  1  0.131588  -0.000368  0.957126  0.0  0.141576  -0.000136  1.012461  0.0  0.144305  -0.00011  1.01024  0.0  0.132325  0.139347  -0.000171  1.014156  0.0
H  H10  1  0.03909800  0.22944471  0.48452678  1  0.133652  0.000937  0.955745  0.001  0.142975  0.000662  1.011488  0.001  0.145643  0.000495  1.009251  0.0  0.132918  0.140859  0.00071  1.013286  0.001
C  C11  1  0.13545574  0.67511941  0.26584678  1  0.031965  0.000852  3.647112  0.001  0.000773  0.002006  3.908137  0.002  0.004198  0.001589  3.923718  0.002  0.036041  -0.000907  0.002112  3.898001  0.003
C  C12  1  0.86468663  0.32389838  0.73431905  1  0.033812  -0.003936  3.645225  -0.003  0.003194  -0.000919  3.90629  0.0  0.007585  -0.002522  3.921208  -0.002  0.035794  0.000264  0.000474  3.89662  0.001
C  C13  1  0.09690213  0.69670684  0.43258571  1  0.025834  0.000486  3.651986  0.002  -0.005448  0.001354  3.913234  0.002  -0.001471  0.000907  3.928728  0.001  0.030706  -0.007449  0.001759  3.90251  0.003
C  C14  1  0.90355012  0.30356393  0.56704545  1  0.022922  0.010169  3.649556  0.011  -0.007874  0.003824  3.911212  0.004  -0.003774  0.00368  3.926429  0.005  0.029923  -0.010403  0.00393  3.901135  0.004
N  N15  1  0.32955998  0.57528554  0.21854897  1  -0.206585  0.069113  3.331259  0.089  -0.174268  0.047361  3.636992  0.064  -0.196886  0.039655  3.658972  0.056  -0.263427  -0.160499  0.049607  3.624142  0.065
N  N16  1  0.66993369  0.42195981  0.78277636  1  -0.205991  0.063802  3.318049  0.082  -0.175981  0.045973  3.626274  0.062  -0.199457  0.039089  3.648512  0.055  -0.264297  -0.160543  0.047358  3.612098  0.062
N  N17  1  0.40870259  0.53546906  0.34835780  1  -0.097128  -0.063922  3.284306  -0.079  -0.075386  -0.047125  3.613869  -0.064  -0.092409  -0.042591  3.637867  -0.06  -0.149853  -0.064426  -0.044761  3.599671  -0.059
N  N18  1  0.59046318  0.46229383  0.65231741  1  -0.103057  0.062692  3.278975  0.08  -0.080585  0.047034  3.61053  0.063  -0.097137  0.04001  3.634225  0.057  -0.153063  -0.071112  0.049279  3.59697  0.064
N  N19  1  0.26936693  0.60780306  0.47991287  1  -0.216441  0.072267  3.29136  0.093  -0.191703  0.051966  3.621052  0.072  -0.215171  0.042762  3.641218  0.062  -0.244941  -0.176637  0.055942  3.608641  0.074
N  N20  1  0.73062582  0.39154846  0.52027197  1  -0.210333  -0.066623  3.29443  -0.082  -0.186878  -0.048995  3.624929  -0.066  -0.210256  -0.043444  3.645014  -0.061  -0.244272  -0.171117  -0.046413  3.612006  -0.06
O  O21  1  0.37827737  0.74204846  0.82050158  1  -0.896596  0.14537  1.789257  0.196  -0.931637  0.090414  2.156529  0.128  -0.995872  0.070549  2.144961  0.105  -0.617736  -0.886251  0.099594  2.16593  0.136
O  O22  1  0.62397457  0.25971583  0.17819899  1  -0.893922  0.004979  1.799295  0.008  -0.929005  0.004624  2.167562  0.007  -0.99563  0.003869  2.157054  0.007  -0.613585  -0.879858  0.005065  2.175004  0.007
O  O23  1  0.64241977  0.97361310  0.74390452  1  -0.972897  0.004207  1.588995  0.006  -1.012947  0.001805  1.907831  0.002  -1.05753  0.000858  1.90217  0.001  -0.680962  -0.976062  0.002804  1.914771  0.003
O  O24  1  0.35793194  0.02870786  0.25503437  1  -0.971851  0.004361  1.588228  0.006  -1.012209  0.002286  1.907202  0.004  -1.056912  0.00126  1.901392  0.003  -0.680856  -0.974569  0.00323  1.913852  0.005
O  O25  1  0.33006566  0.13409869  0.58689906  1  -0.71575  0.02939  1.312384  0.038  -0.745063  0.014122  1.5833  0.019  -0.774464  0.009974  1.577017  0.014  -0.56988  -0.722487  0.018131  1.590008  0.023
O  O26  1  0.67063873  0.86779859  0.41229718  1  -0.710387  -0.01498  1.311402  -0.019  -0.740097  -0.005999  1.581764  -0.009  -0.770407  -0.004738  1.575962  -0.007  -0.567203  -0.714648  -0.006983  1.587645  -0.01
O  O27  1  0.22342486  0.06036957  0.96295573  1  -0.986635  0.000219  1.614303  0.001  -1.015719  0.000184  1.922897  0.0  -1.060701  -1.3e-05  1.917468  0.0  -0.689195  -0.978276  0.000507  1.929484  0.001
O  O28  1  0.77612382  0.94032845  0.03730856  1  -0.985994  -0.000497  1.617424  0.0  -1.01497  -0.000301  1.926011  0.0  -1.06012  -0.000454  1.920762  0.0  -0.688974  -0.976884  -1.7e-05  1.932806  0.0
O  O29  1  0.05179776  0.80657010  0.73353273  1  -0.81809  0.082157  1.573949  0.111  -0.839772  0.045247  1.890448  0.065  -0.886863  0.034116  1.877214  0.051  -0.615524  -0.804195  0.051735  1.901753  0.071
O  O30  1  0.94801489  0.19247478  0.26771680  1  -0.818445  -0.075657  1.577871  -0.099  -0.839901  -0.043393  1.895507  -0.062  -0.887046  -0.033859  1.882272  -0.05  -0.614611  -0.803986  -0.046234  1.905778  -0.064
O  O31  1  0.23338006  0.39362203  0.99941891  1  -0.852086  -0.024422  1.467526  -0.028  -0.902144  -0.009811  1.786168  -0.011  -0.940725  -0.006903  1.774325  -0.008  -0.602618  -0.871348  -0.012227  1.795996  -0.014
O  O32  1  0.76437388  0.60804401  0.99964632  1  -0.847249  0.031973  1.460474  0.043  -0.897117  0.012701  1.777744  0.018  -0.935424  0.008212  1.766237  0.013  -0.601862  -0.867707  0.017215  1.787977  0.024
