# generated using pymatgen
data_MnH8(C3O2)2
_symmetry_space_group_name_H-M   'P 1'
_cell_length_a   4.88788426
_cell_length_b   8.93558244
_cell_length_c   8.93558555
_cell_angle_alpha   81.37659653
_cell_angle_beta   76.37576918
_cell_angle_gamma   76.37568139
_symmetry_Int_Tables_number   1
_chemical_formula_structural   MnH8(C3O2)2
_chemical_formula_sum   'Mn2 H16 C12 O8'
_cell_volume   366.76920435
_cell_formula_units_Z   2
loop_
 _symmetry_equiv_pos_site_id
 _symmetry_equiv_pos_as_xyz
  1  'x, y, z'
loop_
 _atom_site_type_symbol
 _atom_site_label
 _atom_site_symmetry_multiplicity
 _atom_site_fract_x
 _atom_site_fract_y
 _atom_site_fract_z
 _atom_site_occupancy
 _atom_site_pbe_cm5_charge
 _atom_site_pbe_ddec_charge
 _atom_site_pbe_ddec_spin_density
 _atom_site_pbe_ddec_sum_bond_order
 _atom_site_pbe_magmom
Mn  Mn0  1  0.24999921  0.07925624  0.92074351  1  0.607325  1.01698  4.660566  2.304923  4.463
Mn  Mn1  1  0.75000108  0.92074263  0.07925656  1  0.607332  1.017021  4.660566  2.304855  4.463
H  H2  1  0.26572204  0.98298115  0.56902035  1  0.106099  0.096013  -0.00012  0.983707  0.0
H  H3  1  0.23427754  0.43097941  0.01701849  1  0.106096  0.096016  -0.00012  0.983695  0.0
H  H4  1  0.73427825  0.01701772  0.43097972  1  0.106102  0.09602  -0.00012  0.983704  0.0
H  H5  1  0.76572275  0.56901946  0.98298158  1  0.106099  0.09601  -0.00012  0.983713  0.0
H  H6  1  0.82907003  0.27462838  0.48340778  1  0.089293  0.124296  -0.000108  1.009848  0.0
H  H7  1  0.67092843  0.51659286  0.72537258  1  0.089278  0.124295  -0.000108  1.009877  0.0
H  H8  1  0.17092981  0.72537164  0.51659329  1  0.089276  0.124287  -0.000108  1.009845  0.0
H  H9  1  0.32907141  0.48340716  0.27462850  1  0.089282  0.124294  -0.000108  1.009854  0.0
H  H10  1  0.19618193  0.22218922  0.38613086  1  0.092115  0.130154  0.000137  1.007657  0.0
H  H11  1  0.30381816  0.61386921  0.77781164  1  0.092116  0.130154  0.000137  1.00769  0.0
H  H12  1  0.80381791  0.77781081  0.61386909  1  0.092114  0.130151  0.000137  1.007661  0.0
H  H13  1  0.69618378  0.38613081  0.22218917  1  0.092099  0.13014  0.000137  1.007659  0.0
H  H14  1  0.11190403  0.27022744  0.57972476  1  0.090039  0.122233  0.000251  1.01773  0.0
H  H15  1  0.38809661  0.42027603  0.72977322  1  0.09005  0.122251  0.000251  1.017726  0.0
H  H16  1  0.88809747  0.72977374  0.42027594  1  0.09004  0.12224  0.000251  1.017757  0.0
H  H17  1  0.61190323  0.57972400  0.27022674  1  0.090055  0.122253  0.000251  1.017718  0.0
C  C18  1  0.84974969  0.03033952  0.71443321  1  0.241294  0.638984  0.028173  4.033823  0.025
C  C19  1  0.65025027  0.28556584  0.96966035  1  0.241287  0.638973  0.028173  4.033857  0.025
C  C20  1  0.15025015  0.96966051  0.28556675  1  0.241264  0.638952  0.028173  4.033712  0.025
C  C21  1  0.34975002  0.71443304  0.03033972  1  0.241241  0.638926  0.028173  4.033957  0.025
C  C22  1  0.04732958  0.04194239  0.55601426  1  -0.087338  -0.10072  0.004444  3.87098  0.004
C  C23  1  0.45267000  0.44398619  0.95805762  1  -0.087339  -0.100721  0.004444  3.87094  0.004
C  C24  1  0.95267026  0.95805764  0.44398682  1  -0.087325  -0.100716  0.004444  3.870964  0.004
C  C25  1  0.54732985  0.55601384  0.04194234  1  -0.087341  -0.100704  0.004444  3.870953  0.004
C  C26  1  0.04518608  0.21286436  0.49796313  1  -0.238514  -0.378868  0.001813  3.913683  0.002
C  C27  1  0.45481364  0.50203856  0.78713509  1  -0.238507  -0.378878  0.001813  3.913693  0.002
C  C28  1  0.95481376  0.78713567  0.50203795  1  -0.238504  -0.378868  0.001813  3.913714  0.002
C  C29  1  0.54518575  0.49796263  0.21286476  1  -0.238502  -0.37887  0.001813  3.913664  0.002
O  O30  1  0.96668444  0.97298953  0.83123018  1  -0.300122  -0.602187  0.080494  2.426122  0.053
O  O31  1  0.53331700  0.16876962  0.02700999  1  -0.300116  -0.602168  0.080491  2.426129  0.053
O  O32  1  0.03331750  0.02701049  0.16876950  1  -0.300118  -0.602178  0.080493  2.426136  0.053
O  O33  1  0.46668329  0.83122925  0.97299008  1  -0.300098  -0.602143  0.080492  2.426153  0.053
O  O34  1  0.58111335  0.07843637  0.72342173  1  -0.29654  -0.538417  0.054633  2.288383  0.039
O  O35  1  0.91888719  0.27657691  0.92156266  1  -0.296528  -0.538412  0.054634  2.288391  0.039
O  O36  1  0.41888814  0.92156482  0.27657785  1  -0.296508  -0.538383  0.054634  2.288274  0.039
O  O37  1  0.08111354  0.72342080  0.07843752  1  -0.296494  -0.538408  0.054635  2.28845  0.039
