# generated using pymatgen
data_LiH5C6N2O5
_symmetry_space_group_name_H-M   'P 1'
_cell_length_a   3.51482835
_cell_length_b   8.44750205
_cell_length_c   12.06472044
_cell_angle_alpha   90.00048206
_cell_angle_beta   90.00007556
_cell_angle_gamma   100.12830600
_symmetry_Int_Tables_number   1
_chemical_formula_structural   LiH5C6N2O5
_chemical_formula_sum   'Li2 H10 C12 N4 O10'
_cell_volume   352.63753696
_cell_formula_units_Z   2
loop_
 _symmetry_equiv_pos_site_id
 _symmetry_equiv_pos_as_xyz
  1  'x, y, z'
loop_
 _atom_site_type_symbol
 _atom_site_label
 _atom_site_symmetry_multiplicity
 _atom_site_fract_x
 _atom_site_fract_y
 _atom_site_fract_z
 _atom_site_occupancy
 _atom_site_hle17_bader_spin_density
 _atom_site_hle17_ddec_charge
 _atom_site_hle17_ddec_spin_density
 _atom_site_hle17_ddec_sum_bond_order
 _atom_site_hle17_magmom
 _atom_site_hse06_10hf_bader_spin_density
 _atom_site_hse06_10hf_ddec_charge
 _atom_site_hse06_10hf_ddec_spin_density
 _atom_site_hse06_10hf_ddec_sum_bond_order
 _atom_site_hse06_10hf_magmom
 _atom_site_hse06_bader_spin_density
 _atom_site_hse06_ddec_charge
 _atom_site_hse06_ddec_spin_density
 _atom_site_hse06_ddec_sum_bond_order
 _atom_site_hse06_magmom
 _atom_site_pbe_bader_spin_density
 _atom_site_pbe_cm5_charge
 _atom_site_pbe_ddec_charge
 _atom_site_pbe_ddec_spin_density
 _atom_site_pbe_ddec_sum_bond_order
 _atom_site_pbe_magmom
Li  Li0  1  0.62352351  0.99662032  0.24999802  1  0  0.845987  0  0.384078  0  0  0.793868  0  0.504373  0  0  0.804825  0  0.486393  0  0  0.491117  0.78589  0  0.517489  0
Li  Li1  1  0.37647774  0.00338317  0.75000003  1  0  0.845979  0  0.384082  0  0  0.79385  0  0.504394  0  0  0.804807  0  0.486413  0  0  0.491124  0.785876  0  0.51751  0
H  H2  1  0.89554404  0.47143495  0.42107135  1  0  0.097005  0  0.96928  0  0  0.095432  0  1.047907  0  0  0.09968  0  1.043591  0  0  0.118422  0.092284  0  1.051065  0
H  H3  1  0.10444925  0.52856707  0.92107305  1  0  0.097008  0  0.96928  0  0  0.095434  0  1.0479  0  0  0.09969  0  1.043577  0  0  0.118432  0.092296  0  1.051047  0
H  H4  1  0.10446863  0.52856865  0.57892671  1  0  0.096965  0  0.969184  0  0  0.095447  0  1.047765  0  0  0.099681  0  1.043456  0  0  0.118435  0.0923  0  1.05092  0
H  H5  1  0.89552496  0.47143258  0.07892335  1  0  0.096969  0  0.969144  0  0  0.095448  0  1.047705  0  0  0.099703  0  1.04339  0  0  0.118437  0.092308  0  1.050854  0
H  H6  1  0.20958017  0.18664438  0.31633198  1  0  0.444101  0  0.846582  0  0  0.410495  0  0.915054  0  0  0.421346  0  0.898808  0  0  0.309178  0.402741  0  0.926705  0
H  H7  1  0.79041675  0.81335393  0.81633056  1  0  0.444077  0  0.846592  0  0  0.410463  0  0.91508  0  0  0.421319  0  0.898825  0  0  0.309168  0.402718  0  0.92672  0
H  H8  1  0.79042768  0.81336157  0.68365695  1  0  0.444108  0  0.846585  0  0  0.410479  0  0.915098  0  0  0.421328  0  0.898855  0  0  0.309163  0.402725  0  0.92675  0
H  H9  1  0.20956996  0.18664104  0.18365920  1  0  0.444115  0  0.846573  0  0  0.410483  0  0.915089  0  0  0.421338  0  0.898838  0  0  0.309169  0.402735  0  0.926733  0
H  H10  1  0.49998272  0.99999639  0.00000134  1  0  0.414411  0  0.895947  0  0  0.38024  0  0.969712  0  0  0.394718  0  0.950005  0  0  0.306036  0.370503  0  0.982875  0
H  H11  1  0.50001899  0.00000510  0.50000336  1  0  0.414475  0  0.895893  0  0  0.380309  0  0.969623  0  0  0.394784  0  0.94992  0  0  0.306056  0.370577  0  0.982777  0
C  C12  1  0.75385638  0.68902685  0.34547386  1  0  0.045877  0  3.750238  0  0  0.054288  0  4.001063  0  0  0.049178  0  4.02036  0  0  0.123699  0.057103  0  3.98843  0
C  C13  1  0.24614703  0.31097310  0.84547433  1  0  0.045875  0  3.750301  0  0  0.054247  0  4.001159  0  0  0.049172  0  4.020422  0  0  0.123698  0.057117  0  3.988488  0
C  C14  1  0.24614969  0.31097429  0.65452751  1  0  0.045781  0  3.750476  0  0  0.05429  0  4.001201  0  0  0.049183  0  4.020488  0  0  0.123695  0.057113  0  3.988566  0
C  C15  1  0.75384762  0.68902794  0.15452373  1  0  0.045975  0  3.750283  0  0  0.054342  0  4.001069  0  0  0.049286  0  4.020326  0  0  0.123725  0.057206  0  3.98839  0
C  C16  1  0.85325740  0.53547204  0.34511619  1  0  0.093278  0  3.634968  0  0  0.055812  0  3.899578  0  0  0.060994  0  3.914118  0  0  0.068283  0.052491  0  3.88989  0
C  C17  1  0.14675172  0.46452795  0.84511835  1  0  0.093272  0  3.634976  0  0  0.055739  0  3.899624  0  0  0.060968  0  3.91412  0  0  0.068304  0.052483  0  3.889893  0
C  C18  1  0.14675394  0.46452795  0.65488684  1  0  0.093352  0  3.634831  0  0  0.055785  0  3.8995  0  0  0.060986  0  3.914027  0  0  0.068319  0.052471  0  3.88981  0
C  C19  1  0.85323633  0.53547063  0.15488467  1  0  0.093266  0  3.634743  0  0  0.055669  0  3.899433  0  0  0.060896  0  3.913932  0  0  0.068281  0.052418  0  3.8897  0
C  C20  1  0.69557617  0.78426314  0.44812135  1  0  0.643752  0  3.858693  0  0  0.584255  0  4.167684  0  0  0.617744  0  4.160002  0  0  0.237328  0.561993  0  4.172041  0
C  C21  1  0.30442377  0.21573329  0.94811796  1  0  0.643668  0  3.858713  0  0  0.584144  0  4.167733  0  0  0.617649  0  4.160035  0  0  0.237285  0.561898  0  4.172085  0
C  C22  1  0.30445497  0.21574422  0.55188665  1  0  0.643771  0  3.858611  0  0  0.584266  0  4.167592  0  0  0.617757  0  4.159905  0  0  0.237285  0.562008  0  4.171947  0
C  C23  1  0.69555348  0.78425920  0.05188175  1  0  0.643542  0  3.85892  0  0  0.584175  0  4.167686  0  0  0.617655  0  4.160006  0  0  0.23731  0.56195  0  4.17201  0
N  N24  1  0.70452928  0.76253753  0.24999900  1  0  -0.356947  0  3.26802  0  0  -0.331128  0  3.527378  0  0  -0.334861  0  3.544117  0  0  -0.367696  -0.327966  0  3.516338  0
N  N25  1  0.29546252  0.23746348  0.74999988  1  0  -0.356866  0  3.268093  0  0  -0.331036  0  3.527373  0  0  -0.33478  0  3.54412  0  0  -0.367707  -0.32788  0  3.516338  0
N  N26  1  0.90248738  0.45948039  0.25000063  1  0  -0.22668  0  2.993696  0  0  -0.19002  0  3.26698  0  0  -0.198371  0  3.280736  0  0  -0.282389  -0.184403  0  3.257656  0
N  N27  1  0.09751584  0.54052072  0.75000240  1  0  -0.226704  0  2.993646  0  0  -0.19005  0  3.266978  0  0  -0.198403  0  3.280726  0  0  -0.282425  -0.184445  0  3.257657  0
O  O28  1  0.58597065  0.91996365  0.42444278  1  0  -0.618194  0  2.100244  0  0  -0.560954  0  2.334389  0  0  -0.585864  0  2.320157  0  0  -0.322887  -0.544319  0  2.343743  0
O  O29  1  0.41402617  0.08003245  0.92444028  1  0  -0.618019  0  2.100431  0  0  -0.560784  0  2.33458  0  0  -0.585694  0  2.32035  0  0  -0.322784  -0.544147  0  2.343941  0
O  O30  1  0.41406379  0.08004494  0.57556439  1  0  -0.618065  0  2.100388  0  0  -0.560866  0  2.334567  0  0  -0.585773  0  2.320339  0  0  -0.322793  -0.54424  0  2.343917  0
O  O31  1  0.58594931  0.91995523  0.07556192  1  0  -0.617951  0  2.100416  0  0  -0.560781  0  2.334528  0  0  -0.585676  0  2.320307  0  0  -0.322788  -0.544145  0  2.343881  0
O  O32  1  0.74974442  0.73108349  0.54184654  1  0  -0.568313  0  1.963879  0  0  -0.510386  0  2.184347  0  0  -0.533722  0  2.176637  0  0  -0.272616  -0.494136  0  2.189084  0
O  O33  1  0.25024742  0.26891365  0.04184597  1  0  -0.568367  0  1.963717  0  0  -0.510453  0  2.184213  0  0  -0.533806  0  2.176484  0  0  -0.272653  -0.494188  0  2.18895  0
O  O34  1  0.25031332  0.26892652  0.45815483  1  0  -0.568386  0  1.963491  0  0  -0.51049  0  2.184009  0  0  -0.533835  0  2.176296  0  0  -0.272646  -0.494229  0  2.188747  0
O  O35  1  0.74969004  0.73107127  0.95814960  1  0  -0.56831  0  1.963715  0  0  -0.510459  0  2.184123  0  0  -0.533836  0  2.176417  0  0  -0.272667  -0.494212  0  2.188852  0
O  O36  1  0.18195918  0.11631337  0.24999787  1  0  -0.951916  0  1.820048  0  0  -0.910794  0  2.012177  0  0  -0.925053  0  1.975586  0  0  -0.669963  -0.900466  0  2.038494  0
O  O37  1  0.81804359  0.88368655  0.74999687  1  0  -0.951889  0  1.820052  0  0  -0.91076  0  2.012183  0  0  -0.925015  0  1.975594  0  0  -0.669934  -0.900428  0  2.038496  0
