# generated using pymatgen
data_CuH8C6BrN2
_symmetry_space_group_name_H-M   'P 1'
_cell_length_a   6.59987887
_cell_length_b   8.51217095
_cell_length_c   8.19971862
_cell_angle_alpha   69.97403105
_cell_angle_beta   73.29085394
_cell_angle_gamma   70.10045392
_symmetry_Int_Tables_number   1
_chemical_formula_structural   CuH8C6BrN2
_chemical_formula_sum   'Cu2 H16 C12 Br2 N4'
_cell_volume   399.26760900
_cell_formula_units_Z   2
loop_
 _symmetry_equiv_pos_site_id
 _symmetry_equiv_pos_as_xyz
  1  'x, y, z'
loop_
 _atom_site_type_symbol
 _atom_site_label
 _atom_site_symmetry_multiplicity
 _atom_site_fract_x
 _atom_site_fract_y
 _atom_site_fract_z
 _atom_site_occupancy
 _atom_site_hle17_bader_spin_density
 _atom_site_hle17_ddec_charge
 _atom_site_hle17_ddec_spin_density
 _atom_site_hle17_ddec_sum_bond_order
 _atom_site_hle17_magmom
 _atom_site_hse06_10hf_bader_spin_density
 _atom_site_hse06_10hf_ddec_charge
 _atom_site_hse06_10hf_ddec_spin_density
 _atom_site_hse06_10hf_ddec_sum_bond_order
 _atom_site_hse06_10hf_magmom
 _atom_site_hse06_bader_spin_density
 _atom_site_hse06_ddec_charge
 _atom_site_hse06_ddec_spin_density
 _atom_site_hse06_ddec_sum_bond_order
 _atom_site_hse06_magmom
 _atom_site_pbe_bader_spin_density
 _atom_site_pbe_cm5_charge
 _atom_site_pbe_ddec_charge
 _atom_site_pbe_ddec_spin_density
 _atom_site_pbe_ddec_sum_bond_order
 _atom_site_pbe_magmom
Cu  Cu0  1  0.66383465  0.34136890  0.64571800  1  0  0.44155  0  1.938629  0  0  0.335033  0  2.410122  0  0  0.327726  0  2.371692  0  0  0.447386  0.342819  0  2.433364  0
Cu  Cu1  1  0.33617450  0.65864573  0.35429785  1  0  0.441536  0  1.938549  0  0  0.335037  0  2.410068  0  0  0.327745  0  2.371634  0  0  0.447376  0.342808  0  2.433201  0
H  H2  1  0.07602873  0.28131010  0.39637349  1  0  0.0987  0  0.96824  0  0  0.103216  0  1.037632  0  0  0.107586  0  1.034155  0  0  0.10145  0.099993  0  1.040373  0
H  H3  1  0.92395559  0.71871111  0.60361672  1  0  0.098582  0  0.968331  0  0  0.103082  0  1.037744  0  0  0.107449  0  1.034277  0  0  0.101435  0.099854  0  1.040479  0
H  H4  1  0.30891095  0.60840345  0.75517552  1  0  0.090038  0  0.979763  0  0  0.09411  0  1.052064  0  0  0.097866  0  1.04881  0  0  0.103645  0.091332  0  1.054551  0
H  H5  1  0.69111235  0.39160037  0.24483359  1  0  0.090067  0  0.979781  0  0  0.094129  0  1.052117  0  0  0.097884  0  1.048859  0  0  0.103662  0.091334  0  1.054622  0
H  H6  1  0.86630110  0.12598075  0.93099155  1  0  0.114305  0  0.967427  0  0  0.133402  0  1.034947  0  0  0.135681  0  1.033139  0  0  0.092602  0.131585  0  1.036338  0
H  H7  1  0.13371738  0.87404032  0.06896103  1  0  0.114292  0  0.967722  0  0  0.133402  0  1.035138  0  0  0.135693  0  1.033324  0  0  0.09263  0.131605  0  1.036482  0
H  H8  1  0.92211829  0.15012266  0.12154905  1  0  0.115807  0  0.956437  0  0  0.138677  0  1.011192  0  0  0.138382  0  1.013686  0  0  0.092355  0.138809  0  1.009532  0
H  H9  1  0.07785927  0.84979796  0.87845740  1  0  0.115633  0  0.956114  0  0  0.138561  0  1.010848  0  0  0.13827  0  1.01333  0  0  0.092292  0.138689  0  1.009191  0
H  H10  1  0.02841338  0.26423739  0.90230277  1  0  0.136044  0  0.964159  0  0  0.153504  0  1.029302  0  0  0.15574  0  1.029004  0  0  0.085489  0.151692  0  1.029663  0
H  H11  1  0.97160903  0.73573645  0.09776783  1  0  0.136071  0  0.964094  0  0  0.153531  0  1.029247  0  0  0.155766  0  1.028954  0  0  0.085457  0.151711  0  1.029608  0
H  H12  1  0.60452472  0.01744254  0.86915829  1  0  0.110961  0  0.961999  0  0  0.130636  0  1.02998  0  0  0.133823  0  1.026769  0  0  0.090824  0.128269  0  1.03227  0
H  H13  1  0.39551344  0.98249506  0.13086105  1  0  0.110864  0  0.962148  0  0  0.130472  0  1.030231  0  0  0.133661  0  1.027021  0  0  0.090809  0.12812  0  1.032487  0
H  H14  1  0.62030193  0.82234169  0.82195535  1  0  0.121211  0  0.952325  0  0  0.142557  0  1.008513  0  0  0.143136  0  1.010295  0  0  0.092857  0.142228  0  1.007214  0
H  H15  1  0.37961642  0.17769629  0.17794476  1  0  0.121272  0  0.952159  0  0  0.142667  0  1.008306  0  0  0.143249  0  1.010083  0  0  0.092796  0.142325  0  1.007007  0
H  H16  1  0.46758871  0.03030534  0.70813428  1  0  0.13456  0  0.947146  0  0  0.154693  0  1.006171  0  0  0.157014  0  1.005908  0  0  0.089928  0.152951  0  1.006411  0
H  H17  1  0.53239170  0.96979001  0.29186810  1  0  0.134461  0  0.946943  0  0  0.154595  0  1.005997  0  0  0.1569  0  1.00575  0  0  0.089921  0.152852  0  1.006234  0
C  C18  1  0.81650773  0.98159912  0.62621105  1  0  0.246668  0  3.721764  0  0  0.255575  0  3.968554  0  0  0.261152  0  3.984104  0  0  0.106673  0.251539  0  3.958494  0
C  C19  1  0.18342620  0.01840033  0.37380216  1  0  0.246465  0  3.722445  0  0  0.25534  0  3.969275  0  0  0.260918  0  3.984817  0  0  0.106588  0.251293  0  3.959233  0
C  C20  1  0.04229391  0.15477861  0.44195635  1  0  0.016141  0  3.657388  0  0  -0.021096  0  3.913743  0  0  -0.016319  0  3.921792  0  0  0.029987  -0.024779  0  3.909115  0
C  C21  1  0.95770550  0.84524304  0.55800437  1  0  0.01638  0  3.657062  0  0  -0.020822  0  3.913354  0  0  -0.016048  0  3.921407  0  0  0.030097  -0.024499  0  3.908693  0
C  C22  1  0.39361113  0.56055093  0.86607342  1  0  0.021881  0  3.649879  0  0  -0.013874  0  3.898312  0  0  -0.010569  0  3.910688  0  0  0.034491  -0.016776  0  3.891296  0
C  C23  1  0.60641549  0.43944269  0.13394968  1  0  0.021973  0  3.649964  0  0  -0.013758  0  3.898398  0  0  -0.010438  0  3.91076  0  0  0.034636  -0.016654  0  3.891392  0
C  C24  1  0.68445556  0.36453846  0.99331998  1  0  0.252031  0  3.717343  0  0  0.261625  0  3.961857  0  0  0.265886  0  3.97987  0  0  0.115005  0.258187  0  3.950672  0
C  C25  1  0.31557235  0.63542929  0.00670642  1  0  0.251781  0  3.717088  0  0  0.261374  0  3.961734  0  0  0.265632  0  3.979761  0  0  0.114981  0.257945  0  3.950524  0
C  C26  1  0.88633069  0.21744087  0.98851863  1  0  -0.369747  0  3.714798  0  0  -0.449594  0  3.946339  0  0  -0.452612  0  3.953948  0  0  -0.243735  -0.447069  0  3.941471  0
C  C27  1  0.11368385  0.78253508  0.01151530  1  0  -0.369586  0  3.714403  0  0  -0.449491  0  3.946029  0  0  -0.452501  0  3.953585  0  0  -0.243739  -0.446978  0  3.941167  0
C  C28  1  0.61682463  0.95962544  0.76435925  1  0  -0.370199  0  3.723423  0  0  -0.451507  0  3.957315  0  0  -0.454652  0  3.962819  0  0  -0.244112  -0.449061  0  3.953621  0
C  C29  1  0.38314168  0.04039584  0.23561097  1  0  -0.369928  0  3.722646  0  0  -0.45121  0  3.956477  0  0  -0.454346  0  3.961992  0  0  -0.243932  -0.448748  0  3.952748  0
Br  Br30  1  0.72550454  0.61371240  0.40765243  1  0  -0.578869  0  1.194208  0  0  -0.511709  0  1.545666  0  0  -0.532297  0  1.518636  0  0  -0.27663  -0.496791  0  1.563048  0
Br  Br31  1  0.27453807  0.38626731  0.59233659  1  0  -0.578862  0  1.194103  0  0  -0.511738  0  1.545583  0  0  -0.532323  0  1.518558  0  0  -0.276661  -0.496831  0  1.562978  0
N  N32  1  0.85932005  0.13984689  0.56727466  1  0  -0.298615  0  3.34905  0  0  -0.236319  0  3.650833  0  0  -0.236264  0  3.650376  0  0  -0.364929  -0.236687  0  3.650924  0
N  N33  1  0.14066937  0.86018305  0.43270249  1  0  -0.298563  0  3.350032  0  0  -0.236304  0  3.651898  0  0  -0.236253  0  3.65144  0  0  -0.365035  -0.236659  0  3.651892  0
N  N34  1  0.57472244  0.42624624  0.85743282  1  0  -0.282564  0  3.34715  0  0  -0.218959  0  3.639377  0  0  -0.221326  0  3.642246  0  0  -0.353334  -0.21827  0  3.637974  0
N  N35  1  0.42531347  0.57373320  0.14260552  1  0  -0.282342  0  3.346926  0  0  -0.218836  0  3.639237  0  0  -0.22121  0  3.642112  0  0  -0.353261  -0.218138  0  3.637737  0
