# generated using pymatgen
data_CdH14C10(NO)4
_symmetry_space_group_name_H-M   'P 1'
_cell_length_a   5.11354648
_cell_length_b   7.71001521
_cell_length_c   8.77157659
_cell_angle_alpha   75.42576976
_cell_angle_beta   89.88350543
_cell_angle_gamma   75.63844915
_symmetry_Int_Tables_number   1
_chemical_formula_structural   CdH14C10(NO)4
_chemical_formula_sum   'Cd1 H14 C10 N4 O4'
_cell_volume   323.56378655
_cell_formula_units_Z   1
loop_
 _symmetry_equiv_pos_site_id
 _symmetry_equiv_pos_as_xyz
  1  'x, y, z'
loop_
 _atom_site_type_symbol
 _atom_site_label
 _atom_site_symmetry_multiplicity
 _atom_site_fract_x
 _atom_site_fract_y
 _atom_site_fract_z
 _atom_site_occupancy
 _atom_site_hle17_bader_spin_density
 _atom_site_hle17_ddec_charge
 _atom_site_hle17_ddec_spin_density
 _atom_site_hle17_ddec_sum_bond_order
 _atom_site_hle17_magmom
 _atom_site_hse06_10hf_bader_spin_density
 _atom_site_hse06_10hf_ddec_charge
 _atom_site_hse06_10hf_ddec_spin_density
 _atom_site_hse06_10hf_ddec_sum_bond_order
 _atom_site_hse06_10hf_magmom
 _atom_site_hse06_bader_spin_density
 _atom_site_hse06_ddec_charge
 _atom_site_hse06_ddec_spin_density
 _atom_site_hse06_ddec_sum_bond_order
 _atom_site_hse06_magmom
 _atom_site_pbe_bader_spin_density
 _atom_site_pbe_cm5_charge
 _atom_site_pbe_ddec_charge
 _atom_site_pbe_ddec_spin_density
 _atom_site_pbe_ddec_sum_bond_order
 _atom_site_pbe_magmom
Cd  Cd0  1  0.99999645  0.00000139  0.99999988  1  0  1.142925  0  1.692958  0  0  0.942354  0  2.154673  0  0  0.996394  0  2.103961  0  0  0.796131  0.904033  0  2.189214  0
H  H1  1  0.64257876  0.71806531  0.97688530  1  0  0.293059  0  0.948775  0  0  0.267943  0  1.018779  0  0  0.277265  0  1.011535  0  0  0.311337  0.261543  0  1.02364  0
H  H2  1  0.35742138  0.28193618  0.02311484  1  0  0.293062  0  0.948786  0  0  0.267944  0  1.018796  0  0  0.277267  0  1.011552  0  0  0.311339  0.261545  0  1.023658  0
H  H3  1  0.70028622  0.46406343  0.81957070  1  0  0.11149  0  0.974734  0  0  0.120664  0  1.037923  0  0  0.123823  0  1.03513  0  0  0.120174  0.118358  0  1.039969  0
H  H4  1  0.29971342  0.53593944  0.18042914  1  0  0.111451  0  0.974748  0  0  0.120615  0  1.037953  0  0  0.123776  0  1.03516  0  0  0.120151  0.11831  0  1.039997  0
H  H5  1  0.10132515  0.52718672  0.61657047  1  0  0.116764  0  0.977902  0  0  0.130216  0  1.031619  0  0  0.132576  0  1.032179  0  0  0.106028  0.128567  0  1.031416  0
H  H6  1  0.89867499  0.47281478  0.38342852  1  0  0.116769  0  0.977917  0  0  0.130231  0  1.031622  0  0  0.132591  0  1.032181  0  0  0.106031  0.128582  0  1.031417  0
H  H7  1  0.24655251  0.82169990  0.68947492  1  0  0.099815  0  0.960677  0  0  0.110959  0  1.022113  0  0  0.113044  0  1.020523  0  0  0.11965  0.109417  0  1.023269  0
H  H8  1  0.75344763  0.17830161  0.31052407  1  0  0.099812  0  0.960697  0  0  0.110941  0  1.022141  0  0  0.113027  0  1.020553  0  0  0.11966  0.1094  0  1.023298  0
H  H9  1  0.77082644  0.22480842  0.63064595  1  0  0.140509  0  0.961559  0  0  0.157414  0  1.022905  0  0  0.16031  0  1.021699  0  0  0.09248  0.155317  0  1.023774  0
H  H10  1  0.22917276  0.77519031  0.36935478  1  0  0.140466  0  0.961582  0  0  0.157365  0  1.022938  0  0  0.160261  0  1.021732  0  0  0.092463  0.155268  0  1.023807  0
H  H11  1  0.44019532  0.30094985  0.52865978  1  0  0.125169  0  0.961128  0  0  0.143359  0  1.025635  0  0  0.145016  0  1.026273  0  0  0.09188  0.142525  0  1.02456  0
H  H12  1  0.55980192  0.69904891  0.47133866  1  0  0.125193  0  0.961115  0  0  0.143383  0  1.025617  0  0  0.145034  0  1.026262  0  0  0.091891  0.142549  0  1.024541  0
H  H13  1  0.60758667  0.06299330  0.58506248  1  0  0.134483  0  0.947307  0  0  0.155146  0  1.004809  0  0  0.157463  0  1.004483  0  0  0.096806  0.153106  0  1.005872  0
H  H14  1  0.39241303  0.93700405  0.41493740  1  0  0.134429  0  0.947239  0  0  0.155082  0  1.004775  0  0  0.157398  0  1.004449  0  0  0.096784  0.153043  0  1.005838  0
C  C15  1  0.81526374  0.56796701  0.80294621  1  0  0.0532  0  3.67775  0  0  0.004666  0  3.946407  0  0  0.013595  0  3.959991  0  0  0.018707  -0.000895  0  3.936772  0
C  C16  1  0.18473785  0.43203587  0.19705249  1  0  0.053347  0  3.677606  0  0  0.004832  0  3.946237  0  0  0.013759  0  3.959823  0  0  0.018758  -0.000729  0  3.936601  0
C  C17  1  0.01937204  0.60133954  0.70270532  1  0  -0.218907  0  3.782308  0  0  -0.230389  0  4.042979  0  0  -0.240067  0  4.063971  0  0  -0.120861  -0.224207  0  4.028469  0
C  C18  1  0.98063006  0.39866195  0.29729368  1  0  -0.219034  0  3.782336  0  0  -0.230535  0  4.043024  0  0  -0.240214  0  4.064015  0  0  -0.120908  -0.224351  0  4.02851  0
C  C19  1  0.09720215  0.74920577  0.73924923  1  0  0.049217  0  3.741185  0  0  0.009134  0  4.007072  0  0  0.017507  0  4.02345  0  0  0.012942  0.00378  0  3.995532  0
C  C20  1  0.90279407  0.25079574  0.26074977  1  0  0.049215  0  3.741162  0  0  0.009146  0  4.007061  0  0  0.017519  0  4.023436  0  0  0.01289  0.003791  0  3.995521  0
C  C21  1  0.43955944  0.17292817  0.77571413  1  0  0.758939  0  3.833168  0  0  0.708563  0  4.142146  0  0  0.7431  0  4.133465  0  0  0.208666  0.684876  0  4.14761  0
C  C22  1  0.56044368  0.82707054  0.22428659  1  0  0.758871  0  3.833222  0  0  0.708498  0  4.142195  0  0  0.743034  0  4.133514  0  0  0.208671  0.68481  0  4.147657  0
C  C23  1  0.57561076  0.19275244  0.62107581  1  0  -0.46819  0  3.66811  0  0  -0.543711  0  3.902733  0  0  -0.551549  0  3.905938  0  0  -0.252691  -0.538174  0  3.900444  0
C  C24  1  0.42438894  0.80724492  0.37892293  1  0  -0.468099  0  3.66806  0  0  -0.543609  0  3.902701  0  0  -0.551445  0  3.905913  0  0  -0.25266  -0.538072  0  3.90041  0
N  N25  1  0.95012858  0.80226900  0.85438073  1  0  -0.26784  0  3.187239  0  0  -0.203677  0  3.464325  0  0  -0.220721  0  3.483699  0  0  -0.26074  -0.191921  0  3.45073  0
N  N26  1  0.04986961  0.19773250  0.14561940  1  0  -0.267782  0  3.187144  0  0  -0.203615  0  3.464219  0  0  -0.220658  0  3.483594  0  0  -0.260697  -0.19186  0  3.450626  0
N  N27  1  0.78000807  0.69142333  0.89100504  1  0  -0.156716  0  3.498253  0  0  -0.094619  0  3.732298  0  0  -0.107536  0  3.752878  0  0  -0.280088  -0.086208  0  3.718199  0
N  N28  1  0.21999257  0.30857679  0.10899425  1  0  -0.156749  0  3.498171  0  0  -0.094654  0  3.732216  0  0  -0.107572  0  3.752796  0  0  -0.280079  -0.086244  0  3.718118  0
O  O29  1  0.55605877  0.20380569  0.89256517  1  0  -0.687778  0  2.023806  0  0  -0.618928  0  2.274398  0  0  -0.645749  0  2.261668  0  0  -0.333159  -0.600261  0  2.28278  0
O  O30  1  0.44393992  0.79619442  0.10743526  1  0  -0.687758  0  2.023755  0  0  -0.618907  0  2.274322  0  0  -0.645733  0  2.261611  0  0  -0.333164  -0.600254  0  2.282736  0
O  O31  1  0.21620930  0.12920696  0.78043461  1  0  -0.654689  0  1.977122  0  0  -0.587929  0  2.234357  0  0  -0.616286  0  2.22312  0  0  -0.329195  -0.567847  0  2.241095  0
O  O32  1  0.78378939  0.87079316  0.21956582  1  0  -0.654643  0  1.977116  0  0  -0.587881  0  2.234349  0  0  -0.616232  0  2.223105  0  0  -0.329194  -0.567797  0  2.241087  0
