# generated using pymatgen
data_CuH4C4(BrN)2
_symmetry_space_group_name_H-M   'P 1'
_cell_length_a   6.89610880
_cell_length_b   7.62972107
_cell_length_c   7.87858412
_cell_angle_alpha   114.46611796
_cell_angle_beta   111.12011960
_cell_angle_gamma   99.22127955
_symmetry_Int_Tables_number   1
_chemical_formula_structural   CuH4C4(BrN)2
_chemical_formula_sum   'Cu2 H8 C8 Br4 N4'
_cell_volume   327.75387181
_cell_formula_units_Z   2
loop_
 _symmetry_equiv_pos_site_id
 _symmetry_equiv_pos_as_xyz
  1  'x, y, z'
loop_
 _atom_site_type_symbol
 _atom_site_label
 _atom_site_symmetry_multiplicity
 _atom_site_fract_x
 _atom_site_fract_y
 _atom_site_fract_z
 _atom_site_occupancy
 _atom_site_pbe_cm5_charge
 _atom_site_pbe_ddec_charge
 _atom_site_pbe_ddec_spin_density
 _atom_site_pbe_ddec_sum_bond_order
 _atom_site_pbe_magmom
Cu  Cu0  1  0.49999153  0.00000141  0.00000333  1  0.524923  0.50998  -0.565374  2.455468  -0.432
Cu  Cu1  1  0.99999454  0.00000263  0.99999729  1  0.525001  0.510389  0.565133  2.458026  0.432
H  H2  1  0.35837731  0.70524199  0.56017609  1  0.104089  0.094851  -1.1e-05  1.051835  0.0
H  H3  1  0.70168023  0.85527659  0.56063191  1  0.104019  0.094846  1.3e-05  1.052579  0.0
H  H4  1  0.64163042  0.29476803  0.43983385  1  0.104084  0.094881  -1.1e-05  1.051828  0.0
H  H5  1  0.29831118  0.14471496  0.43935382  1  0.104016  0.094887  1.2e-05  1.052616  0.0
H  H6  1  0.02114840  0.55517835  0.20357354  1  0.096717  0.125148  -0.00134  1.028329  -0.001
H  H7  1  0.68183254  0.64896181  0.20373423  1  0.097038  0.125148  0.001336  1.027728  0.001
H  H8  1  0.97886502  0.44483022  0.79643510  1  0.096695  0.125147  -0.00134  1.028328  -0.001
H  H9  1  0.31817334  0.35103910  0.79626124  1  0.097018  0.125129  0.001336  1.027699  0.001
C  C10  1  0.20389211  0.73169904  0.54479932  1  0.050377  0.066113  0.002738  3.881175  0.004
C  C11  1  0.84065347  0.81330648  0.54498169  1  0.050667  0.06654  -0.002751  3.882016  -0.004
C  C12  1  0.79610798  0.26830323  0.45520374  1  0.05045  0.066096  0.002738  3.881425  0.004
C  C13  1  0.15934375  0.18668815  0.45501098  1  0.050563  0.066318  -0.002751  3.882053  -0.004
C  C14  1  0.01709184  0.65101637  0.34912163  1  -0.060573  -0.048746  -0.005794  3.872682  -0.005
C  C15  1  0.83151268  0.69841997  0.34920121  1  -0.061027  -0.048216  0.005804  3.871598  0.005
C  C16  1  0.98290875  0.34898293  0.65087276  1  -0.06059  -0.048748  -0.005794  3.872708  -0.005
C  C17  1  0.16849472  0.30158091  0.65079729  1  -0.060991  -0.048136  0.005805  3.87148  0.005
Br  Br18  1  0.65506284  0.17127547  0.84977056  1  -0.228966  -0.424433  -0.110393  1.443621  -0.108
Br  Br19  1  0.69493160  0.67813422  0.84953791  1  -0.229379  -0.424569  0.11055  1.442087  0.108
Br  Br20  1  0.34493848  0.82870982  0.15022850  1  -0.228969  -0.424428  -0.110394  1.443617  -0.108
Br  Br21  1  0.30506890  0.32186501  0.15046150  1  -0.229381  -0.424585  0.110529  1.442146  0.108
N  N22  1  0.20518781  0.84701795  0.72807892  1  -0.223262  -0.067561  -0.0455  3.586273  -0.06
N  N23  1  0.02283679  0.88115598  0.72815100  1  -0.224672  -0.069316  0.045482  3.588286  0.06
N  N24  1  0.79481096  0.15298110  0.27193128  1  -0.223275  -0.067548  -0.045504  3.586603  -0.06
N  N25  1  0.97714829  0.11883543  0.27183898  1  -0.224572  -0.069185  0.04548  3.588246  0.06
