# generated using pymatgen
data_HoH9C5(NO4)2
_symmetry_space_group_name_H-M   'P 1'
_cell_length_a   6.54177950
_cell_length_b   6.67943913
_cell_length_c   6.67923688
_cell_angle_alpha   64.37768604
_cell_angle_beta   73.17500892
_cell_angle_gamma   73.17582867
_symmetry_Int_Tables_number   1
_chemical_formula_structural   HoH9C5(NO4)2
_chemical_formula_sum   'Ho1 H9 C5 N2 O8'
_cell_volume   247.28341501
_cell_formula_units_Z   1
loop_
 _symmetry_equiv_pos_site_id
 _symmetry_equiv_pos_as_xyz
  1  'x, y, z'
loop_
 _atom_site_type_symbol
 _atom_site_label
 _atom_site_symmetry_multiplicity
 _atom_site_fract_x
 _atom_site_fract_y
 _atom_site_fract_z
 _atom_site_occupancy
 _atom_site_hle17_bader_spin_density
 _atom_site_hle17_ddec_charge
 _atom_site_hle17_ddec_spin_density
 _atom_site_hle17_ddec_sum_bond_order
 _atom_site_hle17_magmom
 _atom_site_hse06_10hf_bader_spin_density
 _atom_site_hse06_10hf_ddec_charge
 _atom_site_hse06_10hf_ddec_spin_density
 _atom_site_hse06_10hf_ddec_sum_bond_order
 _atom_site_hse06_10hf_magmom
 _atom_site_hse06_bader_spin_density
 _atom_site_hse06_ddec_charge
 _atom_site_hse06_ddec_spin_density
 _atom_site_hse06_ddec_sum_bond_order
 _atom_site_hse06_magmom
 _atom_site_pbe_bader_spin_density
 _atom_site_pbe_cm5_charge
 _atom_site_pbe_ddec_charge
 _atom_site_pbe_ddec_spin_density
 _atom_site_pbe_ddec_sum_bond_order
 _atom_site_pbe_magmom
Ho  Ho0  1  0.99999159  0.90275806  0.09723156  1  0  2.219487  0  1.654812  0  0  2.063764  0  2.140387  0  0  2.203776  0  1.930677  0  0  1.490014  2.02697  0  2.169637  0
H  H1  1  0.59936361  0.10912515  0.45329718  1  0  0.354415  0  0.88679  0  0  0.332571  0  0.951752  0  0  0.342222  0  0.943333  0  0  0.31103  0.325703  0  0.957851  0
H  H2  1  0.40064018  0.54670268  0.89088865  1  0  0.354261  0  0.886738  0  0  0.332434  0  0.951693  0  0  0.342082  0  0.943272  0  0  0.310984  0.325564  0  0.957794  0
H  H3  1  0.46943272  0.40067718  0.35538711  1  0  0.343036  0  0.890594  0  0  0.321621  0  0.957989  0  0  0.330249  0  0.950534  0  0  0.309883  0.315701  0  0.962672  0
H  H4  1  0.53055622  0.64465886  0.59930490  1  0  0.342993  0  0.890729  0  0  0.321576  0  0.958154  0  0  0.330206  0  0.950698  0  0  0.309869  0.315669  0  0.962812  0
H  H5  1  0.17559842  0.35231421  0.62989836  1  0  0.014087  0  0.927392  0  0  0.023233  0  1.00183  0  0  0.024375  0  0.996999  0  0  0.127159  0.022091  0  1.005774  0
H  H6  1  0.82440725  0.37012302  0.64767500  1  0  0.014128  0  0.92753  0  0  0.023261  0  1.001981  0  0  0.024403  0  0.997158  0  0  0.127186  0.022122  0  1.005925  0
H  H7  1  0.87526929  0.37048794  0.25702830  1  0  0.00295  0  0.937689  0  0  0.010863  0  1.013127  0  0  0.012191  0  1.007167  0  0  0.114038  0.009718  0  1.017479  0
H  H8  1  0.12473972  0.74299000  0.62948791  1  0  0.002956  0  0.937637  0  0  0.010851  0  1.01309  0  0  0.012173  0  1.007145  0  0  0.113993  0.009708  0  1.017437  0
H  H9  1  0.50001178  0.98585698  0.01415146  1  0  0.022683  0  0.963069  0  0  0.029913  0  1.033106  0  0  0.030579  0  1.02841  0  0  0.120961  0.029031  0  1.037042  0
C  C10  1  0.29601130  0.19828289  0.62761347  1  0  0.57861  0  3.815423  0  0  0.506339  0  4.114207  0  0  0.536589  0  4.114588  0  0  0.192678  0.486086  0  4.115871  0
C  C11  1  0.70395771  0.37236325  0.80168813  1  0  0.578351  0  3.815715  0  0  0.50607  0  4.114494  0  0  0.536303  0  4.114902  0  0  0.192532  0.485807  0  4.116168  0
C  C12  1  0.03988671  0.37243237  0.14938349  1  0  0.638309  0  3.88082  0  0  0.568105  0  4.189283  0  0  0.602626  0  4.184883  0  0  0.159856  0.545094  0  4.195778  0
C  C13  1  0.96011779  0.85063376  0.62754786  1  0  0.638293  0  3.880688  0  0  0.568099  0  4.189136  0  0  0.60262  0  4.184736  0  0  0.159902  0.545091  0  4.195625  0
C  C14  1  0.50001689  0.83158143  0.16842358  1  0  0.628725  0  3.84515  0  0  0.557749  0  4.149969  0  0  0.593701  0  4.143492  0  0  0.153932  0.533343  0  4.158849  0
N  N15  1  0.46866013  0.23666794  0.46534418  1  0  -0.602441  0  3.117375  0  0  -0.5615  0  3.36353  0  0  -0.582551  0  3.354399  0  0  -0.548452  -0.546557  0  3.368029  0
N  N16  1  0.53136114  0.53467807  0.76333120  1  0  -0.6021  0  3.117574  0  0  -0.561178  0  3.363716  0  0  -0.582216  0  3.354599  0  0  -0.548286  -0.546245  0  3.368194  0
O  O17  1  0.26437538  0.00581249  0.77067034  1  0  -0.661602  0  2.094828  0  0  -0.601783  0  2.35645  0  0  -0.638836  0  2.34589  0  0  -0.385524  -0.584059  0  2.360778  0
O  O18  1  0.73559496  0.22936823  0.99419983  1  0  -0.661527  0  2.094403  0  0  -0.60176  0  2.356187  0  0  -0.638806  0  2.345639  0  0  -0.385477  -0.584032  0  2.360514  0
O  O19  1  0.66801730  0.75338930  0.25856896  1  0  -0.69904  0  2.062436  0  0  -0.64012  0  2.323689  0  0  -0.677758  0  2.31011  0  0  -0.381934  -0.621439  0  2.330697  0
O  O20  1  0.33200512  0.74140451  0.24659303  1  0  -0.699355  0  2.061706  0  0  -0.640408  0  2.322891  0  0  -0.678052  0  2.30931  0  0  -0.382063  -0.621717  0  2.329889  0
O  O21  1  0.12552967  0.54052571  0.10300531  1  0  -0.721364  0  2.119596  0  0  -0.660197  0  2.386281  0  0  -0.700075  0  2.372546  0  0  -0.408137  -0.641429  0  2.392584  0
O  O22  1  0.87446971  0.89699918  0.45945605  1  0  -0.721415  0  2.119774  0  0  -0.660216  0  2.386376  0  0  -0.700092  0  2.37264  0  0  -0.408136  -0.641452  0  2.392686  0
O  O23  1  0.12978597  0.21380549  0.08122807  1  0  -0.682232  0  2.118724  0  0  -0.624664  0  2.376834  0  0  -0.662871  0  2.367027  0  0  -0.372996  -0.605406  0  2.379971  0
O  O24  1  0.87021932  0.91876324  0.78619505  1  0  -0.682207  0  2.118705  0  0  -0.624621  0  2.376796  0  0  -0.662838  0  2.367012  0  0  -0.373012  -0.605364  0  2.379935  0
