# generated using pymatgen
data_CuH4C3IN
_symmetry_space_group_name_H-M   'P 1'
_cell_length_a   7.29958228
_cell_length_b   7.38424771
_cell_length_c   9.81250859
_cell_angle_alpha   96.16728945
_cell_angle_beta   108.15691371
_cell_angle_gamma   97.41692013
_symmetry_Int_Tables_number   1
_chemical_formula_structural   CuH4C3IN
_chemical_formula_sum   'Cu4 H16 C12 I4 N4'
_cell_volume   492.21439047
_cell_formula_units_Z   4
loop_
 _symmetry_equiv_pos_site_id
 _symmetry_equiv_pos_as_xyz
  1  'x, y, z'
loop_
 _atom_site_type_symbol
 _atom_site_label
 _atom_site_symmetry_multiplicity
 _atom_site_fract_x
 _atom_site_fract_y
 _atom_site_fract_z
 _atom_site_occupancy
 _atom_site_hle17_bader_spin_density
 _atom_site_hle17_ddec_charge
 _atom_site_hle17_ddec_spin_density
 _atom_site_hle17_ddec_sum_bond_order
 _atom_site_hle17_magmom
 _atom_site_hse06_10hf_bader_spin_density
 _atom_site_hse06_10hf_ddec_charge
 _atom_site_hse06_10hf_ddec_spin_density
 _atom_site_hse06_10hf_ddec_sum_bond_order
 _atom_site_hse06_10hf_magmom
 _atom_site_hse06_bader_spin_density
 _atom_site_hse06_ddec_charge
 _atom_site_hse06_ddec_spin_density
 _atom_site_hse06_ddec_sum_bond_order
 _atom_site_hse06_magmom
 _atom_site_pbe_bader_spin_density
 _atom_site_pbe_cm5_charge
 _atom_site_pbe_ddec_charge
 _atom_site_pbe_ddec_spin_density
 _atom_site_pbe_ddec_sum_bond_order
 _atom_site_pbe_magmom
Cu  Cu0  1  0.98990044  0.40758368  0.37736304  1  0  0.218225  0  2.213754  0  0  0.138703  0  2.697742  0  0  0.152608  0  2.640015  0  0  0.232477  0.133156  0  2.734076  0
Cu  Cu1  1  0.01010425  0.59241597  0.62263464  1  0  0.218207  0  2.213757  0  0  0.138703  0  2.697714  0  0  0.152613  0  2.639986  0  0  0.232489  0.133149  0  2.734041  0
Cu  Cu2  1  0.83813614  0.05261531  0.43132314  1  0  0.244098  0  2.13877  0  0  0.171446  0  2.617721  0  0  0.187435  0  2.558621  0  0  0.21289  0.161284  0  2.658465  0
Cu  Cu3  1  0.16186800  0.94737461  0.56867767  1  0  0.244148  0  2.138763  0  0  0.171446  0  2.617744  0  0  0.187417  0  2.558637  0  0  0.212873  0.161287  0  2.658488  0
H  H4  1  0.60372728  0.50565381  0.76940814  1  0  0.091294  0  0.985189  0  0  0.096636  0  1.060003  0  0  0.09997  0  1.057394  0  0  0.087131  0.094905  0  1.060345  0
H  H5  1  0.39625970  0.49435857  0.23059044  1  0  0.091121  0  0.98509  0  0  0.096554  0  1.059821  0  0  0.099891  0  1.057204  0  0  0.087076  0.094817  0  1.060163  0
H  H6  1  0.84330493  0.76448148  0.94446727  1  0  0.096308  0  0.971138  0  0  0.104522  0  1.036537  0  0  0.107799  0  1.035322  0  0  0.088686  0.100752  0  1.040468  0
H  H7  1  0.15667869  0.23552948  0.05554364  1  0  0.096297  0  0.971096  0  0  0.104514  0  1.036493  0  0  0.107824  0  1.035244  0  0  0.088728  0.100743  0  1.040422  0
H  H8  1  0.99994398  0.72043033  0.20179128  1  0  0.065885  0  1.004674  0  0  0.071965  0  1.078767  0  0  0.074138  0  1.077329  0  0  0.087682  0.069943  0  1.080181  0
H  H9  1  0.00003658  0.27957237  0.79821617  1  0  0.06586  0  1.00471  0  0  0.071996  0  1.078705  0  0  0.074167  0  1.077268  0  0  0.087692  0.069972  0  1.080122  0
H  H10  1  0.68990766  0.18937899  0.12383003  1  0  0.064707  0  0.977541  0  0  0.071143  0  1.05419  0  0  0.074282  0  1.050422  0  0  0.099845  0.067908  0  1.058434  0
H  H11  1  0.31010471  0.81062201  0.87615635  1  0  0.064762  0  0.977489  0  0  0.071167  0  1.054195  0  0  0.074274  0  1.050454  0  0  0.099858  0.067934  0  1.058442  0
H  H12  1  0.57216115  0.04194442  0.82609415  1  0  0.070715  0  0.922819  0  0  0.089594  0  0.985497  0  0  0.08984  0  0.985358  0  0  0.098573  0.08946  0  0.985857  0
H  H13  1  0.42783653  0.95804972  0.17391159  1  0  0.070782  0  0.922677  0  0  0.089688  0  0.985367  0  0  0.089929  0  0.985228  0  0  0.098593  0.089553  0  0.985726  0
H  H14  1  0.38696979  0.10498098  0.89339658  1  0  0.058427  0  0.941983  0  0  0.077443  0  1.007398  0  0  0.076979  0  1.00812  0  0  0.100181  0.078198  0  1.006586  0
H  H15  1  0.61304132  0.89502962  0.10660966  1  0  0.058465  0  0.941913  0  0  0.077511  0  1.007324  0  0  0.077043  0  1.008041  0  0  0.100211  0.078263  0  1.006513  0
H  H16  1  0.46144861  0.20684787  0.63062793  1  0  0.272407  0  0.931919  0  0  0.265377  0  0.990536  0  0  0.270288  0  0.987849  0  0  0.261726  0.261661  0  0.992731  0
H  H17  1  0.53855208  0.79314627  0.36937038  1  0  0.272404  0  0.931916  0  0  0.265385  0  0.990523  0  0  0.270297  0  0.987835  0  0  0.261719  0.261669  0  0.99272  0
H  H18  1  0.29792035  0.28378433  0.69320656  1  0  0.276189  0  0.910559  0  0  0.267864  0  0.972089  0  0  0.27236  0  0.969279  0  0  0.27919  0.264514  0  0.974305  0
H  H19  1  0.70208175  0.71620283  0.30679660  1  0  0.276366  0  0.910527  0  0  0.267988  0  0.972092  0  0  0.27248  0  0.969303  0  0  0.279242  0.264651  0  0.974274  0
C  C20  1  0.67128253  0.48863202  0.88232981  1  0  -0.056854  0  3.692782  0  0  -0.083332  0  3.940198  0  0  -0.08077  0  3.959324  0  0  -0.077758  -0.084708  0  3.925679  0
C  C21  1  0.32870463  0.51138043  0.11765761  1  0  -0.056702  0  3.692859  0  0  -0.083217  0  3.940233  0  0  -0.080659  0  3.959375  0  0  -0.077699  -0.084589  0  3.925706  0
C  C22  1  0.80440901  0.63433784  0.98011949  1  0  -0.104668  0  3.74405  0  0  -0.112861  0  3.991476  0  0  -0.119851  0  4.01405  0  0  -0.089996  -0.109815  0  3.977972  0
C  C23  1  0.19558574  0.36567024  0.01988263  1  0  -0.104622  0  3.744041  0  0  -0.112848  0  3.99152  0  0  -0.119863  0  4.014079  0  0  -0.090051  -0.109798  0  3.978008  0
C  C24  1  0.89267586  0.61097069  0.12306074  1  0  0.099663  0  3.701952  0  0  0.070077  0  3.950188  0  0  0.075923  0  3.968412  0  0  0.025857  0.066391  0  3.938627  0
C  C25  1  0.10731915  0.38903877  0.87694257  1  0  0.09958  0  3.702201  0  0  0.069952  0  3.950484  0  0  0.0758  0  3.968712  0  0  0.025868  0.066266  0  3.938901  0
C  C26  1  0.72017072  0.31388252  0.07832245  1  0  0.06525  0  3.683285  0  0  0.029808  0  3.929087  0  0  0.035633  0  3.946649  0  0  0.031448  0.02644  0  3.917838  0
C  C27  1  0.27982638  0.68611454  0.92166403  1  0  0.065151  0  3.682793  0  0  0.029687  0  3.928649  0  0  0.035548  0  3.946224  0  0  0.031378  0.026307  0  3.917411  0
C  C28  1  0.62804365  0.32307815  0.93181567  1  0  0.015239  0  3.720852  0  0  0.043286  0  3.953003  0  0  0.037943  0  3.979134  0  0  -0.010771  0.0473  0  3.935045  0
C  C29  1  0.37197532  0.67692124  0.06819152  1  0  0.015374  0  3.721035  0  0  0.043479  0  3.953178  0  0  0.038119  0  3.97932  0  0  -0.010653  0.04749  0  3.935227  0
C  C30  1  0.48871563  0.15380098  0.83735354  1  0  0.039158  0  3.688449  0  0  -0.02426  0  3.946304  0  0  -0.019662  0  3.959255  0  0  -0.072575  -0.027759  0  3.937438  0
C  C31  1  0.51128687  0.84618761  0.16264269  1  0  0.038891  0  3.688694  0  0  -0.024665  0  3.946792  0  0  -0.020038  0  3.95971  0  0  -0.072718  -0.028164  0  3.937927  0
I  I32  1  0.69615625  0.34878221  0.48108820  1  0  -0.329437  0  1.902828  0  0  -0.27671  0  2.392698  0  0  -0.288899  0  2.342466  0  0  -0.163967  -0.268267  0  2.426273  0
I  I33  1  0.30385215  0.65121458  0.51891319  1  0  -0.329468  0  1.902848  0  0  -0.276713  0  2.392693  0  0  -0.288899  0  2.342459  0  0  -0.163973  -0.268265  0  2.426261  0
I  I34  1  0.11573462  0.09269123  0.31644954  1  0  -0.360233  0  1.728346  0  0  -0.30418  0  2.175299  0  0  -0.31807  0  2.131204  0  0  -0.175113  -0.294981  0  2.208395  0
I  I35  1  0.88427659  0.90730549  0.68355659  1  0  -0.360217  0  1.728314  0  0  -0.304182  0  2.175284  0  0  -0.318072  0  2.131181  0  0  -0.175096  -0.294978  0  2.208379  0
N  N36  1  0.85068310  0.45251211  0.17255678  1  0  -0.264232  0  3.395219  0  0  -0.18638  0  3.673067  0  0  -0.201134  0  3.686504  0  0  -0.363244  -0.178203  0  3.663982  0
N  N37  1  0.14931532  0.54747791  0.82744064  1  0  -0.264126  0  3.395279  0  0  -0.186237  0  3.673084  0  0  -0.200991  0  3.686516  0  0  -0.363234  -0.178035  0  3.663967  0
N  N38  1  0.37196864  0.17519863  0.69053986  1  0  -0.562177  0  3.220291  0  0  -0.510175  0  3.476971  0  0  -0.526836  0  3.474231  0  0  -0.652271  -0.498232  0  3.47897  0
N  N39  1  0.62804007  0.82479260  0.30946318  1  0  -0.562237  0  3.220117  0  0  -0.510172  0  3.476922  0  0  -0.526855  0  3.474178  0  0  -0.652296  -0.498219  0  3.478923  0
