# generated using pymatgen
data_MnH8C2(N5O2)2
_symmetry_space_group_name_H-M   'P 1'
_cell_length_a   6.20634587
_cell_length_b   6.51638087
_cell_length_c   7.25571193
_cell_angle_alpha   79.85086257
_cell_angle_beta   72.11163681
_cell_angle_gamma   56.85266457
_symmetry_Int_Tables_number   1
_chemical_formula_structural   MnH8C2(N5O2)2
_chemical_formula_sum   'Mn1 H8 C2 N10 O4'
_cell_volume   233.79952363
_cell_formula_units_Z   1
loop_
 _symmetry_equiv_pos_site_id
 _symmetry_equiv_pos_as_xyz
  1  'x, y, z'
loop_
 _atom_site_type_symbol
 _atom_site_label
 _atom_site_symmetry_multiplicity
 _atom_site_fract_x
 _atom_site_fract_y
 _atom_site_fract_z
 _atom_site_occupancy
 _atom_site_pbe_cm5_charge
 _atom_site_pbe_ddec_charge
 _atom_site_pbe_ddec_spin_density
 _atom_site_pbe_ddec_sum_bond_order
 _atom_site_pbe_magmom
Mn  Mn0  1  0.50000913  0.50000021  0.49999256  1  0.808005  1.173263  -3.668585  2.738634  -3.553
H  H1  1  0.78720401  0.74640332  0.46771672  1  0.320682  0.410135  -0.002254  0.881404  -0.004
H  H2  1  0.21285110  0.25352813  0.53228807  1  0.320685  0.410074  -0.002257  0.881504  -0.004
H  H3  1  0.63339797  0.73917700  0.69125154  1  0.287515  0.348242  -0.000696  1.014989  -0.002
H  H4  1  0.36658889  0.26083226  0.30874127  1  0.287477  0.348185  -0.000696  1.015077  -0.002
H  H5  1  0.94075292  0.08328564  0.33744456  1  0.310225  0.369354  -0.001335  0.96323  -0.003
H  H6  1  0.05924773  0.91670844  0.66255165  1  0.310259  0.369394  -0.001332  0.963107  -0.003
H  H7  1  0.93523663  0.33513726  0.25679628  1  0.294727  0.315266  0.000679  1.052209  -0.003
H  H8  1  0.06478317  0.66487124  0.74317874  1  0.294753  0.315325  0.00068  1.052596  -0.003
C  C9  1  0.65534123  0.64015085  0.08053129  1  0.326146  0.364895  -0.004109  4.126202  -0.018
C  C10  1  0.34464682  0.35985531  0.91947281  1  0.326069  0.364916  -0.004112  4.12608  -0.018
N  N11  1  0.46047095  0.66760777  0.24426054  1  -0.260144  -0.300517  0.085652  3.453177  0.082
N  N12  1  0.53953555  0.33238784  0.75574496  1  -0.260106  -0.300492  0.085685  3.453146  0.083
N  N13  1  0.22683667  0.81160080  0.19244713  1  -0.08699  -0.078888  0.027946  3.289146  0.017
N  N14  1  0.77316402  0.18839677  0.80754981  1  -0.086976  -0.078856  0.02794  3.289199  0.017
N  N15  1  0.27979270  0.86553187  0.00733425  1  -0.077355  -0.037121  -0.000668  3.259856  -0.006
N  N16  1  0.72022042  0.13446089  0.99266181  1  -0.07734  -0.037112  -0.000644  3.259595  -0.006
N  N17  1  0.54324613  0.76217974  0.93251210  1  -0.209738  -0.285282  0.062882  3.271733  0.049
N  N18  1  0.45675977  0.23781742  0.06748775  1  -0.209762  -0.285392  0.062907  3.271493  0.049
N  N19  1  0.91447950  0.50716854  0.08330057  1  -0.194132  -0.206738  0.240895  3.407804  0.173
N  N20  1  0.08551037  0.49285249  0.91669075  1  -0.194093  -0.206766  0.240975  3.407694  0.173
O  O21  1  0.65115012  0.71587282  0.55156357  1  -0.569876  -0.772759  -0.054295  2.154131  -0.046
O  O22  1  0.34880207  0.28418170  0.44842845  1  -0.569872  -0.772627  -0.054291  2.154432  -0.046
O  O23  1  0.87562641  0.24900189  0.38192963  1  -0.545083  -0.713284  -0.020505  2.295619  -0.005
O  O24  1  0.12433504  0.75099358  0.61812306  1  -0.545077  -0.713215  -0.020461  2.295902  -0.005
