# generated using pymatgen
data_YH9C5(NO4)2
_symmetry_space_group_name_H-M   'P 1'
_cell_length_a   6.55504262
_cell_length_b   6.70202171
_cell_length_c   6.70190234
_cell_angle_alpha   64.32192156
_cell_angle_beta   73.28613798
_cell_angle_gamma   73.28686091
_symmetry_Int_Tables_number   1
_chemical_formula_structural   YH9C5(NO4)2
_chemical_formula_sum   'Y1 H9 C5 N2 O8'
_cell_volume   249.57066024
_cell_formula_units_Z   1
loop_
 _symmetry_equiv_pos_site_id
 _symmetry_equiv_pos_as_xyz
  1  'x, y, z'
loop_
 _atom_site_type_symbol
 _atom_site_label
 _atom_site_symmetry_multiplicity
 _atom_site_fract_x
 _atom_site_fract_y
 _atom_site_fract_z
 _atom_site_occupancy
 _atom_site_hle17_bader_spin_density
 _atom_site_hle17_ddec_charge
 _atom_site_hle17_ddec_spin_density
 _atom_site_hle17_ddec_sum_bond_order
 _atom_site_hle17_magmom
 _atom_site_hse06_10hf_bader_spin_density
 _atom_site_hse06_10hf_ddec_charge
 _atom_site_hse06_10hf_ddec_spin_density
 _atom_site_hse06_10hf_ddec_sum_bond_order
 _atom_site_hse06_10hf_magmom
 _atom_site_hse06_bader_spin_density
 _atom_site_hse06_ddec_charge
 _atom_site_hse06_ddec_spin_density
 _atom_site_hse06_ddec_sum_bond_order
 _atom_site_hse06_magmom
 _atom_site_pbe_bader_spin_density
 _atom_site_pbe_cm5_charge
 _atom_site_pbe_ddec_charge
 _atom_site_pbe_ddec_spin_density
 _atom_site_pbe_ddec_sum_bond_order
 _atom_site_pbe_magmom
Y  Y0  1  0.00000285  0.94370064  0.05629897  1  0  1.995991  0  1.918408  0  0  1.795334  0  2.414328  0  0  1.87089  0  2.346789  0  0  1.259976  1.742052  0  2.45938  0
H  H1  1  0.59869716  0.14932296  0.41482525  1  0  0.352253  0  0.88951  0  0  0.329998  0  0.955045  0  0  0.339705  0  0.946566  0  0  0.31114  0.32307  0  0.961196  0
H  H2  1  0.40131307  0.58515159  0.85067748  1  0  0.352108  0  0.889693  0  0  0.329855  0  0.955196  0  0  0.33956  0  0.946727  0  0  0.311133  0.322945  0  0.961338  0
H  H3  1  0.47038034  0.44044773  0.31540761  1  0  0.34044  0  0.894106  0  0  0.317449  0  0.964714  0  0  0.326018  0  0.957648  0  0  0.309889  0.311349  0  0.969818  0
H  H4  1  0.52964464  0.68452698  0.55956478  1  0  0.34045  0  0.894268  0  0  0.317398  0  0.964918  0  0  0.325969  0  0.95784  0  0  0.309872  0.311299  0  0.970027  0
H  H5  1  0.86927793  0.42332112  0.19437246  1  0  0.004413  0  0.940986  0  0  0.012182  0  1.01657  0  0  0.013442  0  1.010865  0  0  0.11422  0.01107  0  1.020792  0
H  H6  1  0.13070418  0.80564287  0.57666231  1  0  0.004433  0  0.941052  0  0  0.01222  0  1.016593  0  0  0.013445  0  1.010937  0  0  0.114255  0.011103  0  1.020822  0
H  H7  1  0.17696928  0.39314531  0.58876684  1  0  0.015715  0  0.924031  0  0  0.025857  0  0.996509  0  0  0.026956  0  0.99159  0  0  0.127885  0.024851  0  1.00018  0
H  H8  1  0.82305631  0.41117844  0.60688160  1  0  0.01568  0  0.924085  0  0  0.025859  0  0.996526  0  0  0.026958  0  0.991607  0  0  0.127898  0.024849  0  1.000198  0
H  H9  1  0.49999950  0.02518422  0.97481620  1  0  0.021522  0  0.965582  0  0  0.028044  0  1.037644  0  0  0.028951  0  1.032163  0  0  0.121322  0.027143  0  1.041641  0
C  C10  1  0.03891608  0.41758195  0.10028433  1  0  0.617979  0  3.880256  0  0  0.544723  0  4.188259  0  0  0.579301  0  4.179348  0  0  0.160716  0.521301  0  4.193504  0
C  C11  1  0.96108446  0.89972339  0.58239970  1  0  0.618181  0  3.879719  0  0  0.544938  0  4.187704  0  0  0.579534  0  4.178771  0  0  0.160788  0.521512  0  4.192948  0
C  C12  1  0.29663817  0.23952903  0.58682554  1  0  0.571653  0  3.814067  0  0  0.496535  0  4.112927  0  0  0.526986  0  4.110492  0  0  0.193653  0.475969  0  4.114022  0
C  C13  1  0.70340159  0.41314350  0.76050285  1  0  0.571578  0  3.814427  0  0  0.496406  0  4.113289  0  0  0.526855  0  4.110863  0  0  0.193471  0.475843  0  4.114387  0
C  C14  1  0.49999197  0.87122692  0.12878409  1  0  0.616555  0  3.838721  0  0  0.541727  0  4.143961  0  0  0.578313  0  4.13161  0  0  0.157777  0.516909  0  4.15166  0
N  N15  1  0.46864897  0.27705886  0.42501583  1  0  -0.60537  0  3.132536  0  0  -0.567038  0  3.385439  0  0  -0.588609  0  3.377643  0  0  -0.548127  -0.552346  0  3.390769  0
N  N16  1  0.53135908  0.57496213  0.72293578  1  0  -0.605454  0  3.13225  0  0  -0.567005  0  3.38516  0  0  -0.588585  0  3.377378  0  0  -0.548196  -0.552339  0  3.390495  0
O  O17  1  0.66800310  0.79267475  0.21825121  1  0  -0.663842  0  2.046598  0  0  -0.596762  0  2.30195  0  0  -0.626784  0  2.291199  0  0  -0.357265  -0.575784  0  2.308584  0
O  O18  1  0.33197481  0.78176061  0.20732935  1  0  -0.66394  0  2.046653  0  0  -0.596885  0  2.302066  0  0  -0.626905  0  2.291315  0  0  -0.357358  -0.57591  0  2.308701  0
O  O19  1  0.12734690  0.58136242  0.06042265  1  0  -0.677765  0  2.096376  0  0  -0.60639  0  2.35305  0  0  -0.637275  0  2.343603  0  0  -0.377049  -0.584929  0  2.358696  0
O  O20  1  0.87263617  0.93958940  0.41865800  1  0  -0.677652  0  2.096617  0  0  -0.606324  0  2.353343  0  0  -0.637202  0  2.343884  0  0  -0.376994  -0.584859  0  2.358981  0
O  O21  1  0.26506057  0.04781848  0.73010883  1  0  -0.626138  0  2.080988  0  0  -0.554966  0  2.333873  0  0  -0.583869  0  2.326672  0  0  -0.357063  -0.534791  0  2.338032  0
O  O22  1  0.73492783  0.26989968  0.95220031  1  0  -0.625833  0  2.081783  0  0  -0.55467  0  2.334687  0  0  -0.583568  0  2.327493  0  0  -0.356813  -0.534499  0  2.338839  0
O  O23  1  0.13133395  0.25523707  0.03974967  1  0  -0.646304  0  2.108195  0  0  -0.584084  0  2.364512  0  0  -0.614875  0  2.358585  0  0  -0.347511  -0.562749  0  2.367681  0
O  O24  1  0.86864190  0.96027101  0.74479168  1  0  -0.646653  0  2.107539  0  0  -0.584402  0  2.363786  0  0  -0.615211  0  2.35786  0  0  -0.347619  -0.563058  0  2.366953  0
