# generated using pymatgen
data_YH6C5O8
_symmetry_space_group_name_H-M   'P 1'
_cell_length_a   7.94863696
_cell_length_b   7.97788214
_cell_length_c   7.87072962
_cell_angle_alpha   107.90604958
_cell_angle_beta   96.44346050
_cell_angle_gamma   113.99274555
_symmetry_Int_Tables_number   1
_chemical_formula_structural   YH6C5O8
_chemical_formula_sum   'Y2 H12 C10 O16'
_cell_volume   417.42802751
_cell_formula_units_Z   2
loop_
 _symmetry_equiv_pos_site_id
 _symmetry_equiv_pos_as_xyz
  1  'x, y, z'
loop_
 _atom_site_type_symbol
 _atom_site_label
 _atom_site_symmetry_multiplicity
 _atom_site_fract_x
 _atom_site_fract_y
 _atom_site_fract_z
 _atom_site_occupancy
 _atom_site_hle17_bader_spin_density
 _atom_site_hle17_ddec_charge
 _atom_site_hle17_ddec_spin_density
 _atom_site_hle17_ddec_sum_bond_order
 _atom_site_hle17_magmom
 _atom_site_hse06_10hf_bader_spin_density
 _atom_site_hse06_10hf_ddec_charge
 _atom_site_hse06_10hf_ddec_spin_density
 _atom_site_hse06_10hf_ddec_sum_bond_order
 _atom_site_hse06_10hf_magmom
 _atom_site_hse06_bader_spin_density
 _atom_site_hse06_ddec_charge
 _atom_site_hse06_ddec_spin_density
 _atom_site_hse06_ddec_sum_bond_order
 _atom_site_hse06_magmom
 _atom_site_pbe_bader_spin_density
 _atom_site_pbe_cm5_charge
 _atom_site_pbe_ddec_charge
 _atom_site_pbe_ddec_spin_density
 _atom_site_pbe_ddec_sum_bond_order
 _atom_site_pbe_magmom
Y  Y0  1  0.57505870  0.79103353  0.26655555  1  0  2.090627  0  1.82652  0  0  1.891392  0  2.325258  0  0  1.966703  0  2.251148  0  0  1.28031  1.838056  0  2.374379  0
Y  Y1  1  0.42503864  0.20892802  0.73344630  1  0  2.089873  0  1.827272  0  0  1.890411  0  2.326385  0  0  1.965922  0  2.25194  0  0  1.280156  1.837073  0  2.375486  0
H  H2  1  0.09120085  0.40922545  0.35974708  1  0  0.133188  0  0.928002  0  0  0.140595  0  0.987373  0  0  0.145335  0  0.984197  0  0  0.115969  0.137141  0  0.989867  0
H  H3  1  0.90878283  0.59075548  0.64018269  1  0  0.133165  0  0.928209  0  0  0.140539  0  0.987581  0  0  0.14526  0  0.984416  0  0  0.116037  0.137121  0  0.99003  0
H  H4  1  0.14191015  0.71402095  0.13648552  1  0  0.122324  0  0.997979  0  0  0.125684  0  1.064922  0  0  0.13  0  1.06289  0  0  0.114075  0.122629  0  1.066474  0
H  H5  1  0.85819036  0.28598004  0.86350301  1  0  0.122608  0  0.998162  0  0  0.125977  0  1.065055  0  0  0.130289  0  1.063022  0  0  0.114135  0.122923  0  1.06661  0
H  H6  1  0.59833335  0.49722932  0.42144221  1  0  0.441094  0  0.821409  0  0  0.414933  0  0.889577  0  0  0.423639  0  0.879756  0  0  0.324947  0.408678  0  0.896686  0
H  H7  1  0.40048595  0.50252487  0.57922055  1  0  0.440733  0  0.82111  0  0  0.414723  0  0.889037  0  0  0.423376  0  0.879306  0  0  0.325133  0.408496  0  0.89611  0
H  H8  1  0.45856762  0.36421169  0.21409181  1  0  0.447196  0  0.846665  0  0  0.413539  0  0.913264  0  0  0.424867  0  0.896784  0  0  0.310737  0.405483  0  0.924989  0
H  H9  1  0.54148966  0.63568740  0.78589614  1  0  0.447421  0  0.846348  0  0  0.413656  0  0.91305  0  0  0.424979  0  0.896582  0  0  0.31084  0.405613  0  0.924746  0
H  H10  1  0.89802707  0.98200137  0.62524239  1  0  0.445758  0  0.822691  0  0  0.417207  0  0.889106  0  0  0.427999  0  0.873275  0  0  0.315968  0.409457  0  0.900482  0
H  H11  1  0.10200363  0.01805377  0.37476015  1  0  0.445814  0  0.822481  0  0  0.417116  0  0.889204  0  0  0.427949  0  0.873336  0  0  0.315879  0.409336  0  0.900609  0
H  H12  1  0.70000488  0.93215604  0.66940807  1  0  0.425731  0  0.880258  0  0  0.391823  0  0.948643  0  0  0.403988  0  0.930829  0  0  0.299642  0.383152  0  0.96134  0
H  H13  1  0.30003868  0.06789355  0.33060432  1  0  0.425661  0  0.880389  0  0  0.391857  0  0.948635  0  0  0.404022  0  0.930827  0  0  0.299672  0.383183  0  0.961334  0
C  C14  1  0.55916698  0.96483530  0.94126294  1  0  0.573671  0  3.872633  0  0  0.521205  0  4.170956  0  0  0.552272  0  4.16204  0  0  0.234271  0.500027  0  4.17656  0
C  C15  1  0.44083869  0.03514850  0.05871826  1  0  0.573199  0  3.873375  0  0  0.52087  0  4.171586  0  0  0.551911  0  4.162695  0  0  0.234121  0.49972  0  4.177163  0
C  C16  1  0.21789914  0.73557014  0.51251044  1  0  0.721849  0  3.872736  0  0  0.67614  0  4.162704  0  0  0.712881  0  4.151458  0  0  0.225521  0.651067  0  4.169773  0
C  C17  1  0.78216715  0.26446272  0.48747008  1  0  0.722243  0  3.871777  0  0  0.676332  0  4.162107  0  0  0.713106  0  4.150795  0  0  0.225737  0.651263  0  4.169184  0
C  C18  1  0.07341649  0.52480392  0.46186683  1  0  -0.162238  0  3.617621  0  0  -0.183241  0  3.87558  0  0  -0.18875  0  3.888772  0  0  -0.075935  -0.179572  0  3.866849  0
C  C19  1  0.92671841  0.47526318  0.53816788  1  0  -0.161274  0  3.617062  0  0  -0.182223  0  3.875021  0  0  -0.187693  0  3.888225  0  0  -0.075776  -0.178608  0  3.86628  0
C  C20  1  0.83130099  0.60635050  0.08116782  1  0  0.739911  0  3.844939  0  0  0.693837  0  4.129948  0  0  0.730667  0  4.11884  0  0  0.234397  0.668769  0  4.136816  0
C  C21  1  0.16878335  0.39366092  0.91877005  1  0  0.740189  0  3.843895  0  0  0.693793  0  4.129456  0  0  0.730619  0  4.118346  0  0  0.234267  0.66873  0  4.136312  0
C  C22  1  0.00460083  0.58497880  0.05660339  1  0  -0.160076  0  3.62068  0  0  -0.17893  0  3.871837  0  0  -0.185071  0  3.885502  0  0  -0.074244  -0.174876  0  3.862734  0
C  C23  1  0.99545302  0.41500606  0.94334244  1  0  -0.160593  0  3.621001  0  0  -0.179421  0  3.872275  0  0  -0.185557  0  3.885935  0  0  -0.074252  -0.175361  0  3.86317  0
O  O24  1  0.61349118  0.84900351  0.97977198  1  0  -0.615305  0  2.078347  0  0  -0.554971  0  2.309286  0  0  -0.581199  0  2.299381  0  0  -0.313353  -0.536766  0  2.315612  0
O  O25  1  0.38648182  0.15092055  0.02018291  1  0  -0.615117  0  2.079165  0  0  -0.554796  0  2.310085  0  0  -0.581022  0  2.300175  0  0  -0.313391  -0.536619  0  2.316416  0
O  O26  1  0.59061834  0.02727083  0.81243504  1  0  -0.636249  0  2.169367  0  0  -0.567198  0  2.399379  0  0  -0.596319  0  2.39217  0  0  -0.306951  -0.546985  0  2.403886  0
O  O27  1  0.40939954  0.97272275  0.18758211  1  0  -0.636006  0  2.168925  0  0  -0.56715  0  2.398913  0  0  -0.596238  0  2.391714  0  0  -0.306805  -0.546938  0  2.403401  0
O  O28  1  0.35377689  0.76800823  0.43424122  1  0  -0.729507  0  2.049674  0  0  -0.667151  0  2.313027  0  0  -0.697127  0  2.299866  0  0  -0.37581  -0.646077  0  2.321364  0
O  O29  1  0.64626122  0.23206716  0.56574399  1  0  -0.729704  0  2.049342  0  0  -0.666977  0  2.312317  0  0  -0.697133  0  2.299395  0  0  -0.375855  -0.64585  0  2.320551  0
O  O30  1  0.20110589  0.87267754  0.63225120  1  0  -0.685658  0  1.999109  0  0  -0.628252  0  2.24028  0  0  -0.657945  0  2.23034  0  0  -0.363076  -0.607554  0  2.246425  0
O  O31  1  0.79891377  0.12733560  0.36772114  1  0  -0.685881  0  1.999224  0  0  -0.628463  0  2.240471  0  0  -0.658128  0  2.230519  0  0  -0.363112  -0.607773  0  2.246616  0
O  O32  1  0.85241221  0.76158660  0.21328609  1  0  -0.685846  0  1.944461  0  0  -0.6183  0  2.173817  0  0  -0.648069  0  2.161829  0  0  -0.348201  -0.597591  0  2.181488  0
O  O33  1  0.14769741  0.23845189  0.78660528  1  0  -0.685976  0  1.944094  0  0  -0.61842  0  2.173775  0  0  -0.648207  0  2.161762  0  0  -0.348229  -0.59772  0  2.181467  0
O  O34  1  0.66905288  0.47076554  0.97309457  1  0  -0.724548  0  2.095258  0  0  -0.659061  0  2.352661  0  0  -0.690317  0  2.341673  0  0  -0.37703  -0.637133  0  2.359306  0
O  O35  1  0.33103579  0.52928810  0.02682330  1  0  -0.724973  0  2.095162  0  0  -0.659156  0  2.352379  0  0  -0.690486  0  2.341607  0  0  -0.376873  -0.637232  0  2.359017  0
O  O36  1  0.51570435  0.49578228  0.31925880  1  0  -0.878032  0  1.903237  0  0  -0.8209  0  2.111872  0  0  -0.843135  0  2.082802  0  0  -0.610825  -0.805206  0  2.132112  0
O  O37  1  0.48451999  0.50429855  0.68051477  1  0  -0.877391  0  1.903341  0  0  -0.820238  0  2.112128  0  0  -0.842412  0  2.082988  0  0  -0.610205  -0.804602  0  2.132409  0
O  O38  1  0.76188143  0.88303382  0.57575496  1  0  -0.863917  0  1.837652  0  0  -0.808406  0  2.036691  0  0  -0.83046  0  2.001978  0  0  -0.610976  -0.792762  0  2.060909  0
O  O39  1  0.23817547  0.11700861  0.42426048  1  0  -0.863963  0  1.837758  0  0  -0.808376  0  2.036866  0  0  -0.830519  0  2.002021  0  0  -0.610916  -0.792691  0  2.061161  0
