# generated using pymatgen
data_CuH6C4O5
_symmetry_space_group_name_H-M   'P 1'
_cell_length_a   6.76537296
_cell_length_b   7.22437771
_cell_length_c   7.90862083
_cell_angle_alpha   67.85479401
_cell_angle_beta   72.59441642
_cell_angle_gamma   65.51781176
_symmetry_Int_Tables_number   1
_chemical_formula_structural   CuH6C4O5
_chemical_formula_sum   'Cu2 H12 C8 O10'
_cell_volume   321.11702523
_cell_formula_units_Z   2
loop_
 _symmetry_equiv_pos_site_id
 _symmetry_equiv_pos_as_xyz
  1  'x, y, z'
loop_
 _atom_site_type_symbol
 _atom_site_label
 _atom_site_symmetry_multiplicity
 _atom_site_fract_x
 _atom_site_fract_y
 _atom_site_fract_z
 _atom_site_occupancy
 _atom_site_hle17_ddec_charge
 _atom_site_hle17_ddec_spin_density
 _atom_site_hle17_ddec_sum_bond_order
 _atom_site_hle17_magmom
 _atom_site_hse06_10hf_ddec_charge
 _atom_site_hse06_10hf_ddec_spin_density
 _atom_site_hse06_10hf_ddec_sum_bond_order
 _atom_site_hse06_10hf_magmom
 _atom_site_hse06_ddec_charge
 _atom_site_hse06_ddec_spin_density
 _atom_site_hse06_ddec_sum_bond_order
 _atom_site_hse06_magmom
 _atom_site_pbe_cm5_charge
 _atom_site_pbe_ddec_charge
 _atom_site_pbe_ddec_spin_density
 _atom_site_pbe_ddec_sum_bond_order
 _atom_site_pbe_magmom
Cu  Cu0  1  0.62126351  0.81777391  0.97546017  1  0.912174  -0.666756  1.823523  -0.483  0.905977  -0.796296  2.227202  -0.634  1.018244  -0.885691  2.118692  -0.733  0.677548  0.839414  -0.692933  2.288638  -0.541
Cu  Cu1  1  0.37874838  0.18221047  0.02454391  1  0.912086  0.666778  1.823887  0.483  0.905799  0.796303  2.22764  0.634  1.01822  0.885692  2.118866  0.733  0.677534  0.839288  0.692971  2.28893  0.541
H  H2  1  0.71247024  0.44046837  0.90580462  1  0.42438  5.1e-05  0.872179  0.0  0.403085  0.000102  0.921127  0.0  0.414837  4.3e-05  0.904005  0.0  0.29591  0.394902  0.000141  0.933092  0.0
H  H3  1  0.28751696  0.55952722  0.09421107  1  0.424358  -4.9e-05  0.872233  0.0  0.403125  -0.000102  0.921096  0.0  0.414879  -4.4e-05  0.903972  0.0  0.295922  0.39494  -0.000141  0.933064  0.0
H  H4  1  0.95285631  0.42818494  0.89237237  1  0.427847  -1.3e-05  0.866446  0.0  0.405415  1.8e-05  0.917946  0.0  0.416908  -1.4e-05  0.901137  0.0  0.296947  0.397359  4.3e-05  0.929784  0.0
H  H5  1  0.04714119  0.57180052  0.10764119  1  0.427832  1.3e-05  0.866473  0.0  0.405401  -1.8e-05  0.917969  0.0  0.416894  1.4e-05  0.90116  0.0  0.296915  0.397345  -4.2e-05  0.929808  0.0
H  H6  1  0.90821073  0.41347230  0.61790343  1  0.103937  -0.000644  0.959485  -0.001  0.116217  -0.000388  1.025103  -0.001  0.117728  -0.000264  1.02463  0.0  0.104714  0.114867  -0.000434  1.025654  -0.001
H  H7  1  0.09178977  0.58653297  0.38210124  1  0.103944  0.000637  0.959383  0.001  0.116202  0.000388  1.02505  0.001  0.117718  0.000264  1.024577  0.0  0.104686  0.114854  0.000434  1.025602  0.001
H  H8  1  0.88123700  0.29758200  0.46909850  1  0.129796  -0.000384  0.896366  0.0  0.146943  -0.000286  0.947531  0.0  0.148694  -0.000173  0.947129  0.0  0.116586  0.145747  -0.000353  0.947811  0.0
H  H9  1  0.11876114  0.70243337  0.53089625  1  0.129842  0.000376  0.896336  0.0  0.146969  0.000286  0.947538  0.0  0.148724  0.000172  0.947133  0.0  0.116604  0.145779  0.000352  0.947811  0.0
H  H10  1  0.19687768  0.96505462  0.58074165  1  0.120496  0.000593  0.923182  0.001  0.13374  0.000334  0.979943  0.001  0.136195  0.00023  0.978636  0.0  0.1076  0.131839  0.000376  0.980983  0.001
H  H11  1  0.80311995  0.03495019  0.41925497  1  0.120503  -0.00059  0.923187  -0.001  0.133739  -0.000334  0.979941  -0.001  0.136194  -0.00023  0.978633  0.0  0.107591  0.131842  -0.000376  0.98098  -0.001
H  H12  1  0.27280404  0.19221911  0.46143600  1  0.131807  0.000518  0.923481  0.001  0.143977  0.000374  0.983013  0.0  0.146213  0.000237  0.982176  0.0  0.111789  0.142467  0.00045  0.98356  0.0
H  H13  1  0.72719510  0.80777960  0.53855945  1  0.131855  -0.000512  0.923475  -0.001  0.144005  -0.000374  0.983014  0.0  0.146244  -0.000236  0.982173  0.0  0.111795  0.142499  -0.000451  0.983565  0.0
C  C14  1  0.77910223  0.16009940  0.75313935  1  0.692504  0.001339  3.793782  0.002  0.656607  0.00042  4.097057  0.001  0.696748  0.000469  4.092843  0.001  0.221043  0.629127  0.000341  4.100404  0.001
C  C15  1  0.22088774  0.83990505  0.24685541  1  0.692365  -0.001379  3.79399  -0.002  0.656589  -0.00042  4.097117  -0.001  0.696734  -0.00047  4.092901  -0.001  0.22102  0.62911  -0.000335  4.100463  -0.001
C  C16  1  0.93410608  0.26142871  0.60043748  1  -0.234119  -0.002789  3.660716  -0.003  -0.278794  -0.001598  3.913034  -0.002  -0.285563  -0.00108  3.920905  -0.001  -0.157663  -0.273164  -0.001811  3.906786  -0.002
C  C17  1  0.06588880  0.73858079  0.39956099  1  -0.234034  0.002827  3.660831  0.003  -0.278788  0.001594  3.913212  0.002  -0.285561  0.001081  3.921083  0.001  -0.157649  -0.273164  0.001803  3.906972  0.002
C  C18  1  0.17534951  0.12024915  0.58899579  1  -0.236131  -0.00023  3.652487  0.0  -0.276468  0.000231  3.901946  0.0  -0.283503  0.000202  3.909109  0.0  -0.160773  -0.270625  0.000247  3.896045  0.0
C  C19  1  0.82465172  0.87975350  0.41100311  1  -0.236275  0.000187  3.652716  0.0  -0.276526  -0.000229  3.902103  0.0  -0.283564  -0.000205  3.909273  0.0  -0.160763  -0.270687  -0.000253  3.896211  0.0
C  C20  1  0.28467823  0.08088474  0.74671303  1  0.702604  0.000643  3.780409  0.001  0.666552  -0.000178  4.082098  0.0  0.707147  -5.6e-05  4.07724  0.0  0.221725  0.638786  -0.000228  4.085789  0.0
C  C21  1  0.71533062  0.91911870  0.25328255  1  0.70257  -0.00062  3.780551  -0.001  0.666486  0.000177  4.082266  0.0  0.707077  5.9e-05  4.077411  0.0  0.221698  0.638718  0.000234  4.085961  0.0
O  O22  1  0.82392532  0.96195715  0.78836348  1  -0.562993  -0.07622  2.069605  -0.101  -0.539494  -0.052507  2.345367  -0.076  -0.586232  -0.041935  2.337753  -0.065  -0.30278  -0.510353  -0.054276  2.350173  -0.076
O  O23  1  0.17608032  0.03804665  0.21163277  1  -0.562977  0.076233  2.069803  0.101  -0.539499  0.052502  2.3455  0.076  -0.586261  0.041932  2.337852  0.065  -0.302786  -0.510361  0.054263  2.350276  0.076
O  O24  1  0.61165109  0.28515214  0.83219304  1  -0.602719  0.067724  2.088373  0.09  -0.571042  0.048307  2.349321  0.07  -0.617253  0.038793  2.338272  0.06  -0.311587  -0.541857  0.049941  2.356244  0.07
O  O25  1  0.38832755  0.71484809  0.16779803  1  -0.602676  -0.067713  2.088266  -0.09  -0.571017  -0.048306  2.349146  -0.07  -0.617206  -0.038791  2.338127  -0.06  -0.311537  -0.541823  -0.049948  2.356085  -0.07
O  O26  1  0.44005776  0.90393165  0.78457005  1  -0.574397  -0.080766  2.085027  -0.107  -0.554871  -0.054336  2.362621  -0.079  -0.602413  -0.042837  2.353959  -0.066  -0.308186  -0.525179  -0.05675  2.368055  -0.08
O  O27  1  0.55996149  0.09607423  0.21541600  1  -0.574306  0.080742  2.085024  0.107  -0.554754  0.054331  2.362631  0.079  -0.602317  0.042834  2.353943  0.066  -0.308127  -0.525066  0.056733  2.368036  0.08
O  O28  1  0.22166982  0.22660634  0.82552677  1  -0.607732  0.065465  2.089256  0.087  -0.572375  0.046992  2.352542  0.068  -0.618804  0.038026  2.342176  0.059  -0.309817  -0.543141  0.048434  2.35913  0.068
O  O29  1  0.77833575  0.77338446  0.17448207  1  -0.607759  -0.065459  2.089218  -0.087  -0.572414  -0.046988  2.352527  -0.068  -0.618811  -0.038023  2.342178  -0.058  -0.309853  -0.543176  -0.048435  2.359143  -0.068
O  O30  1  0.79760950  0.50504964  0.93309979  1  -0.827398  0.00197  1.860257  0.002  -0.78538  0.001275  2.028145  0.001  -0.80893  0.001083  1.984887  0.001  -0.603056  -0.770126  0.001409  2.056811  0.001
O  O31  1  0.20238724  0.49493898  0.06691306  1  -0.827384  -0.001974  1.860341  -0.002  -0.785404  -0.001275  2.028101  -0.001  -0.80898  -0.001084  1.984818  -0.001  -0.603051  -0.770161  -0.001408  2.05675  -0.001
