# generated using pymatgen
data_Al2H7C16S2N(ClO5)2
_symmetry_space_group_name_H-M   'P 1'
_cell_length_a   6.65033212
_cell_length_b   11.11147334
_cell_length_c   12.72252391
_cell_angle_alpha   71.51917365
_cell_angle_beta   75.45268235
_cell_angle_gamma   71.92442251
_symmetry_Int_Tables_number   1
_chemical_formula_structural   Al2H7C16S2N(ClO5)2
_chemical_formula_sum   'Al2 H7 C16 S2 N1 Cl2 O10'
_cell_volume   835.37784047
_cell_formula_units_Z   1
loop_
 _symmetry_equiv_pos_site_id
 _symmetry_equiv_pos_as_xyz
  1  'x, y, z'
loop_
 _atom_site_type_symbol
 _atom_site_label
 _atom_site_symmetry_multiplicity
 _atom_site_fract_x
 _atom_site_fract_y
 _atom_site_fract_z
 _atom_site_occupancy
 _atom_site_pbe_bader_charge
 _atom_site_pbe_bader_spin_density
 _atom_site_pbe_cm5_charge
 _atom_site_pbe_ddec_charge
 _atom_site_pbe_ddec_spin_density
 _atom_site_pbe_ddec_sum_bond_order
 _atom_site_pbe_magmom
Al  Al0  1  0.49876525  0.50131591  0.50492584  1  2.503873  0  0.396076  1.640488  0  2.571502  0
Al  Al1  1  0.00040854  0.49865060  0.50282093  1  2.504074  0  0.393788  1.641872  0  2.579571  0
H  H2  1  0.28117260  0.58111062  0.36185431  1  0.620374  0  0.339545  0.414435  0  0.887189  0
H  H3  1  0.77775857  0.34761898  0.60875144  1  0.645385  0  0.354957  0.434903  0  0.847361  0
H  H4  1  0.11758177  0.09835635  0.56917196  1  0.080821  0  0.100602  0.108324  0  1.017204  0
H  H5  1  0.76889351  0.13171193  0.46073992  1  0.08596  0  0.108801  0.12319  0  1.005946  0
H  H6  1  0.24373947  0.86331608  0.55970953  1  0.100569  0  0.104414  0.104742  0  1.021722  0
H  H7  1  0.99920222  0.79591501  0.44163492  1  0.515919  0  0.308575  0.321757  0  0.977733  0
H  H8  1  0.04438664  0.94822095  0.42686821  1  0.449436  0  0.306542  0.299336  0  0.957712  0
C  C9  1  0.84533676  0.50815014  0.30586033  1  1.620829  0  0.257924  0.661356  0  4.132695  0
C  C10  1  0.62983892  0.72984160  0.49351591  1  1.536069  0  0.260322  0.646291  0  4.084393  0
C  C11  1  0.15089089  0.49376519  0.69895041  1  1.623037  0  0.261943  0.65983  0  4.141055  0
C  C12  1  0.37098787  0.26755722  0.51857151  1  1.573958  0  0.268933  0.646203  0  4.07642  0
C  C13  1  0.57277106  0.86655127  0.50043677  1  -0.00665  0  -0.030694  -0.176424  0  3.926801  0
C  C14  1  0.43881433  0.12769982  0.51428871  1  0.000598  0  -0.014589  -0.012723  0  4.016334  0
C  C15  1  0.72882835  0.94087128  0.47299725  1  0.494309  0  0.120381  0.318276  0  4.063057  0
C  C16  1  0.28583901  0.05367096  0.54246131  1  -0.042946  0  -0.111923  -0.157291  0  4.043042  0
C  C17  1  0.65449593  0.07207535  0.48133408  1  -0.034023  0  -0.097872  -0.220664  0  3.915358  0
C  C18  1  0.35571655  0.92487649  0.53607024  1  -0.090102  0  -0.087944  -0.079506  0  4.042477  0
C  C19  1  0.22121246  0.44387295  0.90138913  1  0.131837  0  0.008068  0.101732  0  4.087824  0
C  C20  1  0.76986069  0.55546408  0.10421682  1  0.136919  0  0.007471  0.102816  0  4.078936  0
C  C21  1  0.09379453  0.49463816  0.81805945  1  -0.116004  0  -0.023371  -0.188013  0  3.927213  0
C  C22  1  0.89807717  0.50537300  0.18721431  1  -0.125769  0  -0.024831  -0.18885  0  3.929501  0
C  C23  1  0.88720504  0.53319367  0.99965637  1  -0.119186  0  -0.029411  -0.07578  0  4.098853  0
C  C24  1  0.10259174  0.46591693  0.00569659  1  -0.123871  0  -0.028873  -0.072822  0  4.103734  0
S  S25  1  0.82894167  0.56785737  0.86732371  1  0.313655  0  0.103098  0.167367  0  2.82385  0
S  S26  1  0.16221614  0.43154075  0.13753528  1  0.305233  0  0.095659  0.156612  0  2.842082  0
N  N27  1  0.94134322  0.89285786  0.43852673  1  -1.285597  0  -0.580114  -0.596342  0  3.354317  0
Cl  Cl28  1  0.48555086  0.36114147  0.88674810  1  -0.160354  0  0.019017  -0.025388  0  1.561619  0
Cl  Cl29  1  0.50542466  0.63917606  0.11930919  1  -0.169083  0  0.018881  -0.031043  0  1.558072  0
O  O30  1  0.64826014  0.53370936  0.35058541  1  -1.255323  0  -0.236662  -0.595087  0  2.366892  0
O  O31  1  0.82926216  0.67401826  0.46765411  1  -1.274567  0  -0.238679  -0.603549  0  2.381819  0
O  O32  1  0.99436385  0.51969276  0.64763070  1  -1.250963  0  -0.237202  -0.580522  0  2.331126  0
O  O33  1  0.51892785  0.32544709  0.50155431  1  -1.260077  0  -0.241055  -0.601668  0  2.35186  0
O  O34  1  0.34872248  0.46789999  0.65624620  1  -1.255267  0  -0.234055  -0.585482  0  2.37385  0
O  O35  1  0.16971724  0.32000850  0.53858805  1  -1.268929  0  -0.241663  -0.609667  0  2.340272  0
O  O36  1  0.00580472  0.48391492  0.35430000  1  -1.259277  0  -0.241544  -0.593843  0  2.327246  0
O  O37  1  0.47910389  0.67335477  0.51195124  1  -1.268462  0  -0.237806  -0.584751  0  2.329209  0
O  O38  1  0.24495887  0.56422812  0.44326540  1  -1.428044  0  -0.448005  -0.978256  0  2.165778  0
O  O39  1  0.75671725  0.43554388  0.55961828  1  -1.44836  0  -0.448706  -0.991859  0  2.207256  0
