# generated using pymatgen
data_MnH4(CN2)4
_symmetry_space_group_name_H-M   'P 1'
_cell_length_a   7.52779637
_cell_length_b   8.30866911
_cell_length_c   8.30868929
_cell_angle_alpha   95.28657876
_cell_angle_beta   115.89468130
_cell_angle_gamma   115.89446870
_symmetry_Int_Tables_number   1
_chemical_formula_structural   MnH4(CN2)4
_chemical_formula_sum   'Mn2 H8 C8 N16'
_cell_volume   394.03663859
_cell_formula_units_Z   2
loop_
 _symmetry_equiv_pos_site_id
 _symmetry_equiv_pos_as_xyz
  1  'x, y, z'
loop_
 _atom_site_type_symbol
 _atom_site_label
 _atom_site_symmetry_multiplicity
 _atom_site_fract_x
 _atom_site_fract_y
 _atom_site_fract_z
 _atom_site_occupancy
 _atom_site_hle17_ddec_charge
 _atom_site_hle17_ddec_spin_density
 _atom_site_hle17_ddec_sum_bond_order
 _atom_site_hle17_magmom
 _atom_site_hse06_10hf_ddec_charge
 _atom_site_hse06_10hf_ddec_spin_density
 _atom_site_hse06_10hf_ddec_sum_bond_order
 _atom_site_hse06_10hf_magmom
 _atom_site_hse06_ddec_charge
 _atom_site_hse06_ddec_spin_density
 _atom_site_hse06_ddec_sum_bond_order
 _atom_site_hse06_magmom
 _atom_site_pbe_cm5_charge
 _atom_site_pbe_ddec_charge
 _atom_site_pbe_ddec_spin_density
 _atom_site_pbe_ddec_sum_bond_order
 _atom_site_pbe_magmom
Mn  Mn0  1  0.99999736  0.99999635  0.49999960  1  0.936705  4.71844  2.251286  4.551  0.790338  4.562605  2.795782  4.36  0.844229  4.678357  2.730148  4.475  0.66123  0.743096  4.423768  2.849876  4.222
Mn  Mn1  1  0.99999303  0.50000006  0.99999453  1  0.936594  -4.71842  2.251591  -4.551  0.790252  -4.562564  2.796102  -4.36  0.844135  -4.678312  2.730473  -4.475  0.661185  0.743027  -4.423721  2.850186  -4.222
H  H2  1  0.05313702  0.24981462  0.24982343  1  0.068002  -1e-06  0.956691  0.0  0.068813  0.0  1.033976  0.0  0.071067  0.0  1.030585  0.0  0.1319  0.067049  -0.0  1.036596  0.0
H  H3  1  0.94686441  0.75018557  0.75017578  1  0.067911  -1e-06  0.956681  0.0  0.068724  0.0  1.033989  0.0  0.070978  -0.0  1.030597  0.0  0.131866  0.066962  -0.0  1.036611  0.0
H  H4  1  0.57411679  0.06539064  0.41687647  1  0.079981  0.000125  0.958619  0.0  0.081196  0.000381  1.038971  0.0  0.083553  0.000285  1.035591  0.0  0.120366  0.079245  0.000478  1.041833  0.001
H  H5  1  0.57413968  0.41689717  0.06540305  1  0.079979  -0.000129  0.958643  0.0  0.081199  -0.000382  1.03897  0.0  0.083555  -0.000285  1.035589  0.0  0.12034  0.07925  -0.000479  1.041835  -0.001
H  H6  1  0.42588316  0.93460956  0.58312456  1  0.079974  0.000125  0.958643  0.0  0.081186  0.000381  1.039004  0.0  0.083541  0.000285  1.035625  0.0  0.120365  0.079233  0.000478  1.041864  0.001
H  H7  1  0.42586359  0.58310589  0.93459834  1  0.079996  -0.000129  0.95862  0.0  0.081221  -0.000382  1.03895  0.0  0.083577  -0.000285  1.035569  0.0  0.120361  0.079271  -0.000479  1.041813  -0.001
H  H8  1  0.39233795  0.23468121  0.23467696  1  0.125875  2e-06  0.958181  0.0  0.130183  -0.0  1.023112  0.0  0.133478  0.0  1.023195  0.0  0.112618  0.127676  -0.0  1.023509  0.0
H  H9  1  0.60766589  0.76532043  0.76532453  1  0.125888  2e-06  0.958135  0.0  0.130152  -0.0  1.023099  0.0  0.133447  -0.0  1.023183  0.0  0.112609  0.127643  -0.0  1.023493  0.0
C  C10  1  0.90584233  0.24725099  0.24724982  1  0.300524  3.2e-05  3.676297  0.0  0.250847  -3e-06  3.937663  0.0  0.265911  -0.0  3.95143  0.0  0.193059  0.240456  -2e-06  3.927998  0.0
C  C11  1  0.09416002  0.75275065  0.75275228  1  0.300638  2.9e-05  3.676157  0.0  0.250938  -3e-06  3.937538  0.0  0.266003  -2e-06  3.951307  0.0  0.193085  0.240547  -2e-06  3.92788  0.0
C  C12  1  0.63882653  0.14417489  0.33745069  1  0.194945  0.000114  3.640335  0.0  0.157085  0.000498  3.895503  0.0  0.169147  0.000366  3.911059  0.0  0.075851  0.148485  0.000482  3.885533  0.0
C  C13  1  0.63883121  0.33746090  0.14417616  1  0.194898  -4.8e-05  3.640648  0.0  0.157087  -0.000499  3.895746  0.0  0.169147  -0.000366  3.911302  0.0  0.075872  0.148486  -0.000484  3.885783  0.0
C  C14  1  0.36117490  0.85582530  0.66254851  1  0.194952  0.000111  3.64034  0.0  0.157071  0.000497  3.895484  0.0  0.169135  0.000366  3.911038  0.0  0.075855  0.148474  0.000482  3.88551  0.0
C  C15  1  0.36117170  0.66253930  0.85582363  1  0.194861  -5.1e-05  3.640568  0.0  0.157003  -0.0005  3.895669  0.0  0.169062  -0.000367  3.911225  0.0  0.075819  0.148406  -0.000484  3.885701  0.0
C  C16  1  0.53996897  0.23794258  0.23792981  1  -0.156709  -4e-05  3.677501  0.0  -0.16531  1e-06  3.925942  0.0  -0.177802  -1e-06  3.947364  0.0  -0.073865  -0.157575  0.0  3.912778  0.0
C  C17  1  0.46003246  0.76205762  0.76207060  1  -0.156712  -3.7e-05  3.677442  0.0  -0.165223  2e-06  3.925847  0.0  -0.177714  1e-06  3.947268  0.0  -0.073843  -0.157488  0.0  3.912675  0.0
N  N18  1  0.82202370  0.14825046  0.34187267  1  -0.351916  0.026687  3.194007  0.016  -0.278255  0.030742  3.459795  0.017  -0.301916  0.028556  3.475243  0.015  -0.305853  -0.260728  0.032083  3.449272  0.018
N  N19  1  0.82203673  0.34187763  0.14825781  1  -0.351877  -0.026741  3.194052  -0.016  -0.278249  -0.030741  3.459829  -0.017  -0.301908  -0.028559  3.475277  -0.015  -0.305833  -0.260723  -0.032084  3.449305  -0.018
N  N20  1  0.17797774  0.85174975  0.65812895  1  -0.351933  0.026688  3.193972  0.016  -0.278262  0.030741  3.459759  0.017  -0.301925  0.028555  3.475206  0.015  -0.305835  -0.260737  0.032081  3.449239  0.018
N  N21  1  0.17796471  0.65812257  0.85174260  1  -0.351861  -0.026738  3.193929  -0.016  -0.2782  -0.03074  3.459699  -0.017  -0.30186  -0.028558  3.475148  -0.015  -0.305824  -0.260677  -0.032083  3.44918  -0.018
N  N22  1  0.89907895  0.02719863  0.70001416  1  -0.484914  -0.050875  2.664728  -0.066  -0.470109  -0.039463  2.962087  -0.056  -0.489379  -0.047187  2.966038  -0.064  -0.248446  -0.454251  -0.034505  2.959515  -0.051
N  N23  1  0.89910377  0.70002689  0.02720098  1  -0.485155  0.050893  2.664319  0.066  -0.470345  0.03947  2.961677  0.056  -0.489623  0.04718  2.965622  0.064  -0.248596  -0.454486  0.034504  2.959105  0.051
N  N24  1  0.10092009  0.97280014  0.29998638  1  -0.484844  -0.050892  2.664939  -0.066  -0.470068  -0.039472  2.962337  -0.056  -0.489332  -0.047179  2.966283  -0.064  -0.248393  -0.454213  -0.034508  2.959761  -0.051
N  N25  1  0.10089562  0.29997471  0.97279874  1  -0.48512  0.050878  2.66437  0.066  -0.470307  0.039465  2.961725  0.056  -0.489579  0.047189  2.965666  0.064  -0.248571  -0.454441  0.034509  2.95915  0.051
N  N26  1  0.99998245  0.16403878  0.83594022  1  0.415925  -9e-06  4.187835  0.0  0.454178  -9e-06  4.460778  0.0  0.472496  -1.1e-05  4.491564  0.0  0.103019  0.440871  -1.2e-05  4.437999  0.0
N  N27  1  0.00001935  0.83596429  0.16406420  1  0.415894  -1.5e-05  4.187977  0.0  0.454156  -1.2e-05  4.460915  0.0  0.472475  -1.2e-05  4.491699  0.0  0.102976  0.44085  -1.4e-05  4.438133  0.0
N  N28  1  0.68295596  0.72585219  0.33429220  1  -0.483507  -0.052989  2.643526  -0.068  -0.475414  -0.039684  2.94015  -0.056  -0.495984  -0.048242  2.94635  -0.064  -0.252961  -0.457981  -0.033879  2.935306  -0.05
N  N29  1  0.68295092  0.33430903  0.72585974  1  -0.483457  0.052999  2.643205  0.068  -0.475378  0.039685  2.939883  0.056  -0.495951  0.048249  2.946088  0.064  -0.252945  -0.45795  0.033885  2.935044  0.05
N  N30  1  0.31704216  0.27414514  0.66570665  1  -0.483452  -0.053001  2.643585  -0.068  -0.475373  -0.039687  2.940225  -0.056  -0.495939  -0.048255  2.946422  -0.064  -0.25292  -0.457943  -0.033891  2.935386  -0.05
N  N31  1  0.31704719  0.66568829  0.27413790  1  -0.483334  0.052999  2.643214  0.068  -0.475289  0.039694  2.939907  0.056  -0.495859  0.048247  2.946115  0.064  -0.252865  -0.45786  0.033891  2.935065  0.05
N  N32  1  0.50000275  0.69543126  0.30455573  1  0.400614  -3e-06  4.197904  0.0  0.442068  -7e-06  4.471665  0.0  0.459911  -6e-06  4.5041  0.0  0.094172  0.429002  -6e-06  4.44721  0.0
N  N33  1  0.49999240  0.30456605  0.69544194  1  0.400635  -9e-06  4.197854  0.0  0.442084  -1.1e-05  4.471608  0.0  0.459927  -8e-06  4.504042  0.0  0.094202  0.429023  -1e-05  4.447151  0.0
