# generated using pymatgen
data_MnH12C6(N2O)4
_symmetry_space_group_name_H-M   'P 1'
_cell_length_a   5.39116341
_cell_length_b   8.39719653
_cell_length_c   7.54577280
_cell_angle_alpha   62.44908524
_cell_angle_beta   89.94486767
_cell_angle_gamma   87.39186718
_symmetry_Int_Tables_number   1
_chemical_formula_structural   MnH12C6(N2O)4
_chemical_formula_sum   'Mn1 H12 C6 N8 O4'
_cell_volume   302.47294039
_cell_formula_units_Z   1
loop_
 _symmetry_equiv_pos_site_id
 _symmetry_equiv_pos_as_xyz
  1  'x, y, z'
loop_
 _atom_site_type_symbol
 _atom_site_label
 _atom_site_symmetry_multiplicity
 _atom_site_fract_x
 _atom_site_fract_y
 _atom_site_fract_z
 _atom_site_occupancy
 _atom_site_hle17_ddec_charge
 _atom_site_hle17_ddec_spin_density
 _atom_site_hle17_ddec_sum_bond_order
 _atom_site_hle17_magmom
 _atom_site_hse06_10hf_ddec_charge
 _atom_site_hse06_10hf_ddec_spin_density
 _atom_site_hse06_10hf_ddec_sum_bond_order
 _atom_site_hse06_10hf_magmom
 _atom_site_hse06_ddec_charge
 _atom_site_hse06_ddec_spin_density
 _atom_site_hse06_ddec_sum_bond_order
 _atom_site_hse06_magmom
 _atom_site_pbe_cm5_charge
 _atom_site_pbe_ddec_charge
 _atom_site_pbe_ddec_spin_density
 _atom_site_pbe_ddec_sum_bond_order
 _atom_site_pbe_magmom
Mn  Mn0  1  0.00000202  0.99999825  0.00000233  1  1.175168  -4.748649  1.898878  -4.62  1.04374  -4.642559  2.40523  -4.454  1.088095  -4.715804  2.338233  -4.546  0.631129  1.00826  -4.565422  2.455143  -4.358
H  H1  1  0.37629781  0.30516525  0.59983605  1  0.135708  0.000582  0.952485  0.0  0.14053  -5.7e-05  1.019209  0.0  0.145025  0.000152  1.015024  0.0  0.135923  0.137088  -0.000272  1.022574  0.0
H  H2  1  0.62369871  0.69483675  0.40015782  1  0.135639  0.000585  0.952518  0.0  0.140476  -5.7e-05  1.019255  0.0  0.14497  0.000151  1.015067  0.0  0.135913  0.137034  -0.000272  1.022614  0.0
H  H3  1  0.62912468  0.35220019  0.90737624  1  0.140059  0.000388  0.954427  0.0  0.151609  0.000376  1.025813  0.0  0.15459  0.000478  1.02456  0.0  0.104493  0.1493  0.000254  1.026856  0.0
H  H4  1  0.37087946  0.64779756  0.09262068  1  0.140102  0.000389  0.954522  0.0  0.151644  0.000376  1.025929  0.0  0.154625  0.000478  1.024677  0.0  0.104494  0.149341  0.000254  1.026962  0.0
H  H5  1  0.52489055  0.58145173  0.75237222  1  0.126856  -0.000127  0.96473  0.0  0.143934  -0.000255  1.026661  0.0  0.145407  -0.000219  1.027339  0.0  0.094992  0.142786  -0.000299  1.026254  0.0
H  H6  1  0.47510468  0.41854836  0.24763185  1  0.126841  -0.00013  0.964788  0.0  0.14396  -0.000255  1.026677  0.0  0.145435  -0.000219  1.02735  0.0  0.09501  0.142812  -0.000299  1.026271  0.0
H  H7  1  0.79516432  0.52910503  0.91037727  1  0.144848  -5.8e-05  0.92833  0.0  0.159145  -0.000268  0.995971  0.0  0.162319  -0.000134  0.994248  0.0  0.104649  0.156758  -0.00041  0.997275  0.0
H  H8  1  0.20484196  0.47089494  0.08962523  1  0.144907  -6.2e-05  0.928342  0.0  0.159202  -0.000268  0.995973  0.0  0.162375  -0.000134  0.994251  0.0  0.104672  0.156815  -0.00041  0.997281  0.0
H  H9  1  0.23522714  0.87875472  0.37230896  1  0.396748  -0.00061  0.921554  -0.001  0.363298  -0.001528  0.991903  -0.002  0.37268  -0.001179  0.978749  -0.002  0.288378  0.356654  -0.001857  1.00113  -0.003
H  H10  1  0.76476902  0.12124299  0.62771211  1  0.396961  -0.000608  0.921299  -0.001  0.363544  -0.001525  0.991605  -0.002  0.372924  -0.001176  0.978452  -0.002  0.288493  0.356902  -0.001853  1.000831  -0.003
H  H11  1  0.44545563  0.96872756  0.20856141  1  0.407535  0.001036  0.902564  -0.001  0.377193  0.000214  0.966458  -0.002  0.387072  0.000666  0.952456  -0.002  0.293268  0.37018  -0.000194  0.976329  -0.002
H  H12  1  0.55456930  0.03127583  0.79144302  1  0.407729  0.001036  0.902351  -0.001  0.377385  0.000216  0.966239  -0.002  0.387259  0.000667  0.952243  -0.002  0.293409  0.370375  -0.000192  0.976106  -0.002
C  C13  1  0.21049582  0.39421801  0.54972855  1  -0.074864  -0.009145  3.567651  -0.007  -0.127388  -0.013673  3.84305  -0.009  -0.121746  -0.009605  3.850598  -0.007  0.044146  -0.131824  -0.017794  3.839358  -0.012
C  C14  1  0.78950075  0.60578909  0.45026699  1  -0.074778  -0.009142  3.567422  -0.007  -0.127387  -0.01368  3.842954  -0.009  -0.121738  -0.009609  3.850497  -0.007  0.044094  -0.131822  -0.0178  3.839257  -0.012
C  C15  1  0.84494439  0.49524382  0.64985619  1  0.197034  -0.005168  3.684497  -0.004  0.189744  -0.008155  3.953849  -0.005  0.196769  -0.005722  3.967574  -0.004  0.124218  0.184587  -0.010435  3.945335  -0.006
C  C16  1  0.15505605  0.50476045  0.35014186  1  0.197015  -0.005147  3.684587  -0.004  0.18972  -0.008159  3.953923  -0.005  0.196749  -0.00572  3.967649  -0.004  0.12419  0.184565  -0.010438  3.945409  -0.006
C  C17  1  0.68868292  0.48930583  0.81412590  1  -0.366363  0.000409  3.690988  0.0  -0.444073  -0.000211  3.929546  0.0  -0.44803  -3.2e-05  3.934955  0.0  -0.236999  -0.440979  -0.000437  3.926191  0.0
C  C18  1  0.31132280  0.51069608  0.18586643  1  -0.366467  0.000422  3.691147  0.0  -0.444211  -0.000212  3.929655  0.0  -0.44817  -3.2e-05  3.935062  0.0  -0.237074  -0.441129  -0.000436  3.926298  0.0
N  N19  1  0.05908447  0.38712159  0.69763843  1  0.2495  -0.011061  3.66729  -0.013  0.290187  -0.01893  3.935408  -0.02  0.293878  -0.012837  3.955776  -0.014  -0.10413  0.286913  -0.025372  3.921615  -0.027
N  N20  1  0.94091219  0.61288284  0.30235832  1  0.249508  -0.011058  3.667116  -0.013  0.290184  -0.018928  3.935268  -0.02  0.293869  -0.012834  3.955639  -0.014  -0.104158  0.28691  -0.02537  3.921468  -0.027
N  N21  1  0.21684304  0.87983651  0.71191761  1  0.421078  -0.003442  4.228601  -0.005  0.45244  -0.012134  4.508401  -0.014  0.469025  -0.00826  4.538005  -0.01  0.097163  0.440959  -0.015514  4.487797  -0.017
N  N22  1  0.78315781  0.12015694  0.28808666  1  0.421022  -0.00343  4.229039  -0.005  0.452359  -0.012124  4.508879  -0.014  0.468944  -0.00825  4.538482  -0.01  0.097072  0.440877  -0.015501  4.488272  -0.017
N  N23  1  0.25876366  0.95919354  0.80467406  1  -0.579665  0.002276  2.730745  0.014  -0.547875  -0.007091  3.01996  0.011  -0.568893  0.001846  3.021523  0.017  -0.275651  -0.532169  -0.014918  3.018936  0.005
N  N24  1  0.74124314  0.04080842  0.19533815  1  -0.579577  0.002294  2.731195  0.014  -0.547749  -0.007106  3.020343  0.011  -0.568774  0.001824  3.021918  0.017  -0.275563  -0.532058  -0.01493  3.019352  0.005
N  N25  1  0.17685129  0.79940464  0.62357996  1  -0.445527  -0.046637  2.516834  -0.046  -0.433229  -0.047372  2.752261  -0.043  -0.446831  -0.045386  2.763257  -0.042  -0.207648  -0.423213  -0.051227  2.744647  -0.046
N  N26  1  0.82314753  0.20058776  0.37642085  1  -0.445544  -0.04665  2.516749  -0.046  -0.433265  -0.047355  2.752211  -0.043  -0.446873  -0.045369  2.763215  -0.042  -0.207645  -0.423249  -0.051209  2.744601  -0.046
O  O27  1  0.11626600  0.27513295  0.88550119  1  -0.503677  -0.021974  1.798207  -0.01  -0.461363  -0.028441  2.050218  -0.013  -0.484297  -0.024577  2.046045  -0.01  -0.2112  -0.444646  -0.033917  2.05292  -0.019
O  O28  1  0.88373049  0.72487425  0.11449298  1  -0.503725  -0.021997  1.79823  -0.01  -0.461339  -0.028438  2.050181  -0.013  -0.48427  -0.02458  2.046008  -0.01  -0.211179  -0.444621  -0.033915  2.052882  -0.019
O  O29  1  0.28281051  0.90896615  0.23255401  1  -0.836868  -0.032164  1.958542  -0.019  -0.776017  -0.041203  2.167281  -0.025  -0.801007  -0.037293  2.13631  -0.021  -0.56711  -0.756511  -0.044913  2.188533  -0.028
O  O30  1  0.71716717  0.09102490  0.76743337  1  -0.837202  -0.032154  1.958392  -0.019  -0.776399  -0.041195  2.167115  -0.025  -0.801383  -0.037288  2.136139  -0.021  -0.567346  -0.756896  -0.044903  2.188369  -0.028
