# generated using pymatgen
data_NiH8C10(SN5)2
_symmetry_space_group_name_H-M   'P 1'
_cell_length_a   3.74913116
_cell_length_b   9.62702366
_cell_length_c   11.92916971
_cell_angle_alpha   120.25301220
_cell_angle_beta   81.79832703
_cell_angle_gamma   102.10312061
_symmetry_Int_Tables_number   1
_chemical_formula_structural   NiH8C10(SN5)2
_chemical_formula_sum   'Ni1 H8 C10 S2 N10'
_cell_volume   363.30430191
_cell_formula_units_Z   1
loop_
 _symmetry_equiv_pos_site_id
 _symmetry_equiv_pos_as_xyz
  1  'x, y, z'
loop_
 _atom_site_type_symbol
 _atom_site_label
 _atom_site_symmetry_multiplicity
 _atom_site_fract_x
 _atom_site_fract_y
 _atom_site_fract_z
 _atom_site_occupancy
 _atom_site_hle17_bader_spin_density
 _atom_site_hle17_ddec_charge
 _atom_site_hle17_ddec_spin_density
 _atom_site_hle17_ddec_sum_bond_order
 _atom_site_hle17_magmom
 _atom_site_hse06_10hf_bader_spin_density
 _atom_site_hse06_10hf_ddec_charge
 _atom_site_hse06_10hf_ddec_spin_density
 _atom_site_hse06_10hf_ddec_sum_bond_order
 _atom_site_hse06_10hf_magmom
 _atom_site_hse06_bader_spin_density
 _atom_site_hse06_ddec_charge
 _atom_site_hse06_ddec_spin_density
 _atom_site_hse06_ddec_sum_bond_order
 _atom_site_hse06_magmom
 _atom_site_pbe_bader_spin_density
 _atom_site_pbe_cm5_charge
 _atom_site_pbe_ddec_charge
 _atom_site_pbe_ddec_spin_density
 _atom_site_pbe_ddec_sum_bond_order
 _atom_site_pbe_magmom
Ni  Ni0  1  0.00000826  0.49999859  0.49999874  1  0  0.330509  0  2.560426  0  0  0.292961  0  3.069601  0  0  0.353227  0  3.004399  0  0  0.453975  0.262785  0  3.112571  0
H  H1  1  0.05907017  0.21707929  0.81654617  1  0  0.322823  0  0.88061  0  0  0.316238  0  0.928186  0  0  0.322545  0  0.923439  0  0  0.309608  0.31129  0  0.932653  0
H  H2  1  0.94089609  0.78292993  0.18345362  1  0  0.32289  0  0.880525  0  0  0.316256  0  0.928178  0  0  0.322565  0  0.923428  0  0  0.309583  0.311308  0  0.932648  0
H  H3  1  0.38781715  0.39359635  0.89042300  1  0  0.327755  0  0.945611  0  0  0.299348  0  1.026233  0  0  0.308921  0  1.017684  0  0  0.285798  0.292687  0  1.032058  0
H  H4  1  0.61215700  0.60641036  0.10957927  1  0  0.327767  0  0.945652  0  0  0.299327  0  1.026337  0  0  0.308912  0  1.017765  0  0  0.285783  0.29267  0  1.032156  0
H  H5  1  0.42826361  0.12496592  0.36457582  1  0  0.095805  0  0.919613  0  0  0.11004  0  0.973662  0  0  0.113807  0  0.968453  0  0  0.13587  0.106678  0  0.9787  0
H  H6  1  0.57173643  0.87504150  0.63542924  1  0  0.095804  0  0.919599  0  0  0.110024  0  0.973679  0  0  0.113794  0  0.968469  0  0  0.135863  0.106663  0  0.978715  0
H  H7  1  0.38841869  0.98595374  0.11277694  1  0  0.298014  0  0.946703  0  0  0.267358  0  1.02236  0  0  0.278175  0  1.013804  0  0  0.29564  0.25976  0  1.028514  0
H  H8  1  0.61156902  0.01405029  0.88722688  1  0  0.298112  0  0.946616  0  0  0.267396  0  1.022363  0  0  0.278222  0  1.013784  0  0  0.295649  0.259799  0  1.028515  0
C  C9  1  0.11423757  0.30313463  0.00873950  1  0  0.648602  0  3.777471  0  0  0.595971  0  4.075512  0  0  0.623202  0  4.08064  0  0  0.338101  0.577613  0  4.071608  0
C  C10  1  0.88574864  0.69686314  0.99125865  1  0  0.648483  0  3.777479  0  0  0.595874  0  4.075461  0  0  0.623093  0  4.080603  0  0  0.338054  0.577515  0  4.071559  0
C  C11  1  0.79346628  0.19235528  0.12812056  1  0  0.362051  0  3.830232  0  0  0.321878  0  4.106221  0  0  0.338747  0  4.121023  0  0  0.215004  0.310906  0  4.095818  0
C  C12  1  0.20653716  0.80764348  0.87188219  1  0  0.362076  0  3.830249  0  0  0.321875  0  4.106255  0  0  0.338749  0  4.121058  0  0  0.21499  0.310906  0  4.095853  0
C  C13  1  0.94726813  0.32481282  0.23838633  1  0  -0.053467  0  3.937551  0  0  -0.054636  0  4.185538  0  0  -0.06406  0  4.210781  0  0  0.056154  -0.048243  0  4.168593  0
C  C14  1  0.05274988  0.67518056  0.76161191  1  0  -0.0535  0  3.937492  0  0  -0.054635  0  4.185474  0  0  -0.064061  0  4.210721  0  0  0.056197  -0.048247  0  4.168534  0
C  C15  1  0.18432569  0.45316929  0.23249814  1  0  0.255291  0  3.87  0  0  0.246857  0  4.142294  0  0  0.270642  0  4.152677  0  0  0.120615  0.230452  0  4.135073  0
C  C16  1  0.81567986  0.54682431  0.76749849  1  0  0.255262  0  3.869998  0  0  0.246774  0  4.142343  0  0  0.270561  0  4.152731  0  0  0.120553  0.230373  0  4.135123  0
C  C17  1  0.58682363  0.17282539  0.30447627  1  0  0.23175  0  3.586429  0  0  0.172139  0  3.858736  0  0  0.192369  0  3.863932  0  0  0.148495  0.15819  0  3.856392  0
C  C18  1  0.41318497  0.82717687  0.69552606  1  0  0.231707  0  3.58639  0  0  0.1721  0  3.858694  0  0  0.192329  0  3.863893  0  0  0.14847  0.158153  0  3.85635  0
S  S19  1  0.31619961  0.61300436  0.38179210  1  0  -0.268513  0  2.173478  0  0  -0.292169  0  2.553359  0  0  -0.326395  0  2.545449  0  0  -0.153956  -0.270459  0  2.560423  0
S  S20  1  0.68381540  0.38699145  0.61820449  1  0  -0.268456  0  2.173547  0  0  -0.292102  0  2.553456  0  0  -0.326328  0  2.545546  0  0  -0.153907  -0.270395  0  2.560518  0
N  N21  1  0.27276631  0.43923856  0.11452235  1  0  -0.488427  0  2.978934  0  0  -0.432223  0  3.229311  0  0  -0.453066  0  3.236153  0  0  -0.32331  -0.418201  0  3.224905  0
N  N22  1  0.72723082  0.56075891  0.88547484  1  0  -0.488364  0  2.978965  0  0  -0.432137  0  3.22929  0  0  -0.452971  0  3.236138  0  0  -0.323258  -0.418099  0  3.224856  0
N  N23  1  0.21969774  0.29414515  0.89237991  1  0  -0.694729  0  3.083546  0  0  -0.664579  0  3.331842  0  0  -0.685424  0  3.325534  0  0  -0.577628  -0.649929  0  3.336911  0
N  N24  1  0.78027140  0.70585676  0.10762060  1  0  -0.69473  0  3.083389  0  0  -0.664528  0  3.331722  0  0  -0.685378  0  3.325402  0  0  -0.577554  -0.649878  0  3.336791  0
N  N25  1  0.86836659  0.17638631  0.00884791  1  0  -0.544385  0  3.003356  0  0  -0.496476  0  3.273899  0  0  -0.518174  0  3.282534  0  0  -0.341107  -0.481439  0  3.268153  0
N  N26  1  0.13162271  0.82361392  0.99115283  1  0  -0.544353  0  3.003533  0  0  -0.496458  0  3.27405  0  0  -0.518137  0  3.28267  0  0  -0.341116  -0.481421  0  3.268306  0
N  N27  1  0.81889262  0.31349733  0.34754292  1  0  -0.298099  0  3.439966  0  0  -0.241905  0  3.743346  0  0  -0.264746  0  3.7554  0  0  -0.368728  -0.229249  0  3.737114  0
N  N28  1  0.18112512  0.68650097  0.65245712  1  0  -0.298023  0  3.439943  0  0  -0.24184  0  3.743322  0  0  -0.264689  0  3.755391  0  0  -0.368674  -0.229187  0  3.737096  0
N  N29  1  0.56465504  0.09526811  0.17177012  1  0  -0.359779  0  3.319424  0  0  -0.294337  0  3.569308  0  0  -0.313187  0  3.577503  0  0  -0.367568  -0.281475  0  3.564278  0
N  N30  1  0.43534564  0.90473433  0.82823228  1  0  -0.359876  0  3.319397  0  0  -0.29439  0  3.569321  0  0  -0.313246  0  3.577507  0  0  -0.3676  -0.281528  0  3.564288  0
