# generated using pymatgen
data_H6PbC6N4O3
_symmetry_space_group_name_H-M   'P 1'
_cell_length_a   7.01903446
_cell_length_b   8.02664462
_cell_length_c   8.65673003
_cell_angle_alpha   87.18630747
_cell_angle_beta   70.22124287
_cell_angle_gamma   68.74652128
_symmetry_Int_Tables_number   1
_chemical_formula_structural   H6PbC6N4O3
_chemical_formula_sum   'H12 Pb2 C12 N8 O6'
_cell_volume   426.21957505
_cell_formula_units_Z   2
loop_
 _symmetry_equiv_pos_site_id
 _symmetry_equiv_pos_as_xyz
  1  'x, y, z'
loop_
 _atom_site_type_symbol
 _atom_site_label
 _atom_site_symmetry_multiplicity
 _atom_site_fract_x
 _atom_site_fract_y
 _atom_site_fract_z
 _atom_site_occupancy
 _atom_site_hle17_bader_spin_density
 _atom_site_hle17_ddec_charge
 _atom_site_hle17_ddec_spin_density
 _atom_site_hle17_ddec_sum_bond_order
 _atom_site_hle17_magmom
 _atom_site_hse06_10hf_bader_spin_density
 _atom_site_hse06_10hf_ddec_charge
 _atom_site_hse06_10hf_ddec_spin_density
 _atom_site_hse06_10hf_ddec_sum_bond_order
 _atom_site_hse06_10hf_magmom
 _atom_site_hse06_bader_spin_density
 _atom_site_hse06_ddec_charge
 _atom_site_hse06_ddec_spin_density
 _atom_site_hse06_ddec_sum_bond_order
 _atom_site_hse06_magmom
 _atom_site_pbe_bader_spin_density
 _atom_site_pbe_cm5_charge
 _atom_site_pbe_ddec_charge
 _atom_site_pbe_ddec_spin_density
 _atom_site_pbe_ddec_sum_bond_order
 _atom_site_pbe_magmom
H  H0  1  0.93932283  0.05009863  0.23523728  1  0  0.083508  0  0.969999  0  0  0.088418  0  1.042639  0  0  0.092109  0  1.038461  0  0  0.113521  0.085597  0  1.045812  0
H  H1  1  0.06065337  0.94988576  0.76475656  1  0  0.083457  0  0.970118  0  0  0.088395  0  1.042718  0  0  0.092085  0  1.038541  0  0  0.113479  0.085573  0  1.045887  0
H  H2  1  0.58488574  0.93884219  0.71655585  1  0  0.094464  0  0.963066  0  0  0.104089  0  1.030777  0  0  0.106755  0  1.028312  0  0  0.109302  0.102033  0  1.032718  0
H  H3  1  0.41517098  0.06113873  0.28346309  1  0  0.094364  0  0.963034  0  0  0.104015  0  1.030748  0  0  0.106683  0  1.028282  0  0  0.109248  0.101962  0  1.032691  0
H  H4  1  0.50882689  0.25261561  0.81803384  1  0  0.106517  0  0.987178  0  0  0.109616  0  1.059241  0  0  0.112886  0  1.05825  0  0  0.105552  0.107292  0  1.060092  0
H  H5  1  0.49121434  0.74737340  0.18196698  1  0  0.106535  0  0.987237  0  0  0.109639  0  1.059276  0  0  0.112909  0  1.058278  0  0  0.10555  0.107324  0  1.060112  0
H  H6  1  0.65533109  0.45060046  0.61597318  1  0  0.08303  0  0.955442  0  0  0.08954  0  1.025373  0  0  0.092114  0  1.02285  0  0  0.116929  0.087661  0  1.027179  0
H  H7  1  0.34465049  0.54940065  0.38400542  1  0  0.083096  0  0.955417  0  0  0.089555  0  1.02539  0  0  0.092125  0  1.022873  0  0  0.116964  0.087676  0  1.027204  0
H  H8  1  0.29708737  0.96790395  0.99354745  1  0  0.411442  0  0.888067  0  0  0.381152  0  0.95249  0  0  0.390825  0  0.938331  0  0  0.287002  0.37436  0  0.962418  0
H  H9  1  0.70288159  0.03211815  0.00647150  1  0  0.411459  0  0.888048  0  0  0.38118  0  0.952449  0  0  0.39085  0  0.938294  0  0  0.287  0.374389  0  0.962374  0
H  H10  1  0.17385325  0.13848808  0.91747863  1  0  0.421987  0  0.882483  0  0  0.389358  0  0.949914  0  0  0.400522  0  0.933643  0  0  0.286354  0.381477  0  0.961375  0
H  H11  1  0.82617407  0.86153951  0.08251213  1  0  0.422083  0  0.882302  0  0  0.389493  0  0.94967  0  0  0.400653  0  0.933405  0  0  0.286405  0.381611  0  0.961133  0
Pb  Pb12  1  0.06613673  0.40514012  0.21987176  1  0  1.30141  0  1.43399  0  0  1.108934  0  1.840752  0  0  1.165472  0  1.803025  0  0  0.648457  1.068614  0  1.866643  0
Pb  Pb13  1  0.93385941  0.59484747  0.78011632  1  0  1.301446  0  1.433986  0  0  1.108972  0  1.840746  0  0  1.165509  0  1.803015  0  0  0.648521  1.068654  0  1.866638  0
C  C14  1  0.84042480  0.09101382  0.36470347  1  0  0.117403  0  3.695415  0  0  0.075931  0  3.94637  0  0  0.083859  0  3.965166  0  0  0.048461  0.070909  0  3.933638  0
C  C15  1  0.15956518  0.90897414  0.63529324  1  0  0.117553  0  3.695557  0  0  0.076133  0  3.946457  0  0  0.084061  0  3.965257  0  0  0.048536  0.071122  0  3.933706  0
C  C16  1  0.76636446  0.97134986  0.46761760  1  0  -0.12075  0  3.758172  0  0  -0.091086  0  3.990199  0  0  -0.103603  0  4.014149  0  0  -0.016235  -0.083289  0  3.974246  0
C  C17  1  0.23364813  0.02863487  0.53238686  1  0  -0.120703  0  3.757811  0  0  -0.091153  0  3.98996  0  0  -0.103672  0  4.013911  0  0  -0.016281  -0.08335  0  3.974003  0
C  C18  1  0.64670569  0.02886664  0.63378700  1  0  -0.013149  0  3.68726  0  0  -0.039738  0  3.927523  0  0  -0.035009  0  3.945848  0  0  -0.060582  -0.042317  0  3.914943  0
C  C19  1  0.35332844  0.97111749  0.36622304  1  0  -0.012957  0  3.687085  0  0  -0.039532  0  3.927304  0  0  -0.034804  0  3.945628  0  0  -0.060521  -0.04212  0  3.914728  0
C  C20  1  0.60425963  0.20248326  0.69014295  1  0  -0.103718  0  3.695763  0  0  -0.11471  0  3.949266  0  0  -0.122311  0  3.969787  0  0  -0.081478  -0.11007  0  3.935581  0
C  C21  1  0.39576721  0.79750751  0.30985600  1  0  -0.104001  0  3.696126  0  0  -0.114999  0  3.949616  0  0  -0.122593  0  3.970125  0  0  -0.081549  -0.110357  0  3.935941  0
C  C22  1  0.68419402  0.31314449  0.57892245  1  0  0.144622  0  3.668733  0  0  0.108738  0  3.928686  0  0  0.117831  0  3.944625  0  0  0.053455  0.102967  0  3.917697  0
C  C23  1  0.31580254  0.68684971  0.42106626  1  0  0.144867  0  3.668508  0  0  0.109016  0  3.928483  0  0  0.11811  0  3.944422  0  0  0.053619  0.103242  0  3.917502  0
C  C24  1  0.82651462  0.78427037  0.39980913  1  0  0.64397  0  3.948999  0  0  0.588539  0  4.241608  0  0  0.623346  0  4.23718  0  0  0.20623  0.565093  0  4.243539  0
C  C25  1  0.17348973  0.21571594  0.60019522  1  0  0.644053  0  3.948879  0  0  0.588639  0  4.2415  0  0  0.623441  0  4.237067  0  0  0.206309  0.56519  0  4.243428  0
N  N26  1  0.80213517  0.25766295  0.41925413  1  0  -0.35728  0  3.21736  0  0  -0.281647  0  3.476636  0  0  -0.302575  0  3.498224  0  0  -0.304038  -0.267384  0  3.461487  0
N  N27  1  0.19784913  0.74232762  0.58073129  1  0  -0.357621  0  3.217419  0  0  -0.282007  0  3.476716  0  0  -0.302934  0  3.498303  0  0  -0.304223  -0.267748  0  3.461577  0
N  N28  1  0.79003629  0.45494483  0.07966475  1  0  -0.580382  0  2.656353  0  0  -0.531921  0  2.931134  0  0  -0.55781  0  2.942844  0  0  -0.235559  -0.513924  0  2.922774  0
N  N29  1  0.20993807  0.54505936  0.92032491  1  0  -0.580557  0  2.655584  0  0  -0.531681  0  2.930911  0  0  -0.557573  0  2.942619  0  0  -0.235437  -0.513676  0  2.922562  0
N  N30  1  0.68271222  0.36622831  0.08791607  1  0  0.427222  0  4.229837  0  0  0.45093  0  4.511423  0  0  0.468761  0  4.541324  0  0  0.098806  0.438966  0  4.491071  0
N  N31  1  0.31722893  0.63380260  0.91210086  1  0  0.427715  0  4.228761  0  0  0.450537  0  4.511658  0  0  0.468366  0  4.541561  0  0  0.098513  0.438566  0  4.491318  0
N  N32  1  0.57332947  0.28242164  0.09511573  1  0  -0.479016  0  2.490032  0  0  -0.458379  0  2.740004  0  0  -0.471509  0  2.747547  0  0  -0.198658  -0.449242  0  2.735154  0
N  N33  1  0.42657812  0.71762539  0.90492690  1  0  -0.47925  0  2.489798  0  0  -0.45816  0  2.740301  0  0  -0.47129  0  2.747856  0  0  -0.198532  -0.449022  0  2.735446  0
O  O34  1  0.80468029  0.66426940  0.49763653  1  0  -0.665396  0  1.998412  0  0  -0.599435  0  2.240378  0  0  -0.630123  0  2.236442  0  0  -0.2972  -0.577978  0  2.242325  0
O  O35  1  0.19532099  0.33571690  0.50236174  1  0  -0.665464  0  1.99823  0  0  -0.599461  0  2.240117  0  0  -0.630184  0  2.236264  0  0  -0.297211  -0.578003  0  2.242064  0
O  O36  1  0.90601905  0.75149176  0.24272179  1  0  -0.663041  0  2.035691  0  0  -0.586891  0  2.265428  0  0  -0.618789  0  2.260748  0  0  -0.297764  -0.56451  0  2.267746  0
O  O37  1  0.09397595  0.24850274  0.75728004  1  0  -0.663016  0  2.035767  0  0  -0.58685  0  2.265519  0  0  -0.618742  0  2.260836  0  0  -0.297783  -0.564477  0  2.267839  0
O  O38  1  0.21541411  0.09847191  0.01572311  1  0  -0.852901  0  1.816153  0  0  -0.791511  0  1.98885  0  0  -0.812803  0  1.959454  0  0  -0.582527  -0.776329  0  2.009253  0
O  O39  1  0.78465658  0.90156850  0.98425244  1  0  -0.853006  0  1.816028  0  0  -0.791659  0  1.988694  0  0  -0.812947  0  1.959301  0  0  -0.582634  -0.776479  0  2.009103  0
