# generated using pymatgen
data_Cu2H5C4S2I2N
_symmetry_space_group_name_H-M   'P 1'
_cell_length_a   7.58575025
_cell_length_b   7.47406081
_cell_length_c   9.39613323
_cell_angle_alpha   98.35700034
_cell_angle_beta   102.58913890
_cell_angle_gamma   104.22534587
_symmetry_Int_Tables_number   1
_chemical_formula_structural   Cu2H5C4S2I2N
_chemical_formula_sum   'Cu4 H10 C8 S4 I4 N2'
_cell_volume   492.71160067
_cell_formula_units_Z   2
loop_
 _symmetry_equiv_pos_site_id
 _symmetry_equiv_pos_as_xyz
  1  'x, y, z'
loop_
 _atom_site_type_symbol
 _atom_site_label
 _atom_site_symmetry_multiplicity
 _atom_site_fract_x
 _atom_site_fract_y
 _atom_site_fract_z
 _atom_site_occupancy
 _atom_site_hle17_bader_spin_density
 _atom_site_hle17_ddec_charge
 _atom_site_hle17_ddec_spin_density
 _atom_site_hle17_ddec_sum_bond_order
 _atom_site_hle17_magmom
 _atom_site_hse06_10hf_bader_charge
 _atom_site_hse06_10hf_bader_spin_density
 _atom_site_hse06_10hf_ddec_charge
 _atom_site_hse06_10hf_ddec_spin_density
 _atom_site_hse06_10hf_ddec_sum_bond_order
 _atom_site_hse06_10hf_magmom
 _atom_site_hse06_bader_spin_density
 _atom_site_hse06_ddec_charge
 _atom_site_hse06_ddec_spin_density
 _atom_site_hse06_ddec_sum_bond_order
 _atom_site_hse06_magmom
 _atom_site_pbe_bader_spin_density
 _atom_site_pbe_cm5_charge
 _atom_site_pbe_ddec_charge
 _atom_site_pbe_ddec_spin_density
 _atom_site_pbe_ddec_sum_bond_order
 _atom_site_pbe_magmom
Cu  Cu0  1  0.49753354  0.17172715  0.05918528  1  0  0.147985  0  2.306665  0  0.343308  0  0.089627  0  2.766571  0  0  0.104249  0  2.709465  0  0  0.18499  0.080812  0  2.804533  0
Cu  Cu1  1  0.50245249  0.82826937  0.94080975  1  0  0.147995  0  2.306723  0  0.342986  0  0.089641  0  2.766614  0  0  0.104268  0  2.709524  0  0  0.185005  0.080853  0  2.804526  0
Cu  Cu2  1  0.49503981  0.58403002  0.12911886  1  0  0.22324  0  2.215022  0  0.405229  0  0.154087  0  2.672727  0  0  0.167582  0  2.617215  0  0  0.238869  0.146757  0  2.70909  0
Cu  Cu3  1  0.50495362  0.41595081  0.87087129  1  0  0.223255  0  2.215134  0  0.405424  0  0.154037  0  2.672889  0  0  0.167522  0  2.617368  0  0  0.238896  0.146732  0  2.70925  0
H  H4  1  0.01840059  0.93284015  0.22509716  1  0  0.12437  0  0.994718  0  0.104608  0  0.138667  0  1.062033  0  0  0.140774  0  1.062046  0  0  0.072121  0.137185  0  1.0619  0
H  H5  1  0.98160158  0.06715590  0.77492191  1  0  0.12438  0  0.994681  0  0.104573  0  0.138672  0  1.061988  0  0  0.14078  0  1.06201  0  0  0.072119  0.13719  0  1.061857  0
H  H6  1  0.26707085  0.96632020  0.30982644  1  0  0.122697  0  0.96822  0  0.07809  0  0.138469  0  1.033102  0  0  0.140143  0  1.033201  0  0  0.083375  0.137316  0  1.032855  0
H  H7  1  0.73292997  0.03367592  0.69018708  1  0  0.122648  0  0.968086  0  0.078287  0  0.138364  0  1.033036  0  0  0.140034  0  1.03314  0  0  0.083317  0.137216  0  1.032785  0
H  H8  1  0.15674036  0.83064282  0.12390989  1  0  0.138615  0  0.964298  0  0.111455  0  0.154204  0  1.031392  0  0  0.156506  0  1.03098  0  0  0.082591  0.152351  0  1.031931  0
H  H9  1  0.84326132  0.16935611  0.87610625  1  0  0.138609  0  0.964278  0  0.111453  0  0.154186  0  1.03141  0  0  0.15649  0  1.030992  0  0  0.082589  0.152335  0  1.031951  0
H  H10  1  0.43987527  0.78044499  0.42899495  1  0  0.086258  0  0.974633  0  0.136653  0  0.092867  0  1.044882  0  0  0.095551  0  1.04292  0  0  0.098037  0.090886  0  1.04634  0
H  H11  1  0.56011350  0.21954733  0.57098940  1  0  0.086203  0  0.974223  0  0.136568  0  0.092801  0  1.044523  0  0  0.09549  0  1.042559  0  0  0.097983  0.090817  0  1.045981  0
H  H12  1  0.24336992  0.61545919  0.60426765  1  0  0.127331  0  1.018174  0  0.157724  0  0.132007  0  1.0895  0  0  0.135708  0  1.087532  0  0  0.086118  0.129226  0  1.091142  0
H  H13  1  0.75664346  0.38456540  0.39571851  1  0  0.127369  0  1.017928  0  0.15782  0  0.132032  0  1.089283  0  0  0.135728  0  1.087327  0  0  0.086129  0.129244  0  1.090933  0
C  C14  1  0.15917845  0.95147021  0.20673759  1  0  -0.341325  0  3.617525  0  -0.22414  0  -0.408228  0  3.85877  0  0  -0.411412  0  3.866121  0  0  -0.247375  -0.405808  0  3.853663  0
C  C15  1  0.84082506  0.04852584  0.79327958  1  0  -0.341181  0  3.617371  0  -0.224343  0  -0.408031  0  3.858642  0  0  -0.411219  0  3.865988  0  0  -0.247299  -0.405617  0  3.853533  0
C  C16  1  0.25710969  0.33666557  0.27678460  1  0  0.083854  0  3.713079  0  0.330032  0  0.082689  0  4.00447  0  0  0.093505  0  4.020075  0  0  0.102323  0.075326  0  3.99414  0
C  C17  1  0.74288716  0.66332648  0.72321496  1  0  0.083946  0  3.712991  0  0.330364  0  0.082685  0  4.00446  0  0  0.093504  0  4.020051  0  0  0.102363  0.075317  0  3.994137  0
C  C18  1  0.35925743  0.63294147  0.40834219  1  0  0.077532  0  3.742204  0  0.399044  0  0.047127  0  4.002926  0  0  0.050271  0  4.022619  0  0  -0.004569  0.045035  0  3.989998  0
C  C19  1  0.64075742  0.36707460  0.59164107  1  0  0.077741  0  3.742221  0  0.399303  0  0.047332  0  4.002867  0  0  0.050481  0  4.022537  0  0  -0.004413  0.045242  0  3.989946  0
C  C20  1  0.25865685  0.55144588  0.49790188  1  0  -0.209526  0  3.69338  0  -0.258059  0  -0.225266  0  3.968365  0  0  -0.229166  0  3.987222  0  0  -0.111501  -0.222832  0  3.956246  0
C  C21  1  0.74134408  0.44857298  0.50211016  1  0  -0.209793  0  3.694112  0  -0.258285  0  -0.225523  0  3.969124  0  0  -0.229429  0  3.988  0  0  -0.111625  -0.223086  0  3.956994  0
S  S22  1  0.21968484  0.15481365  0.12492393  1  0  0.138234  0  2.947032  0  0.155144  0  0.150557  0  3.37281  0  0  0.150474  0  3.360934  0  0  0.004179  0.149914  0  3.380771  0
S  S23  1  0.78031109  0.84517974  0.87508627  1  0  0.138123  0  2.946884  0  0.155171  0  0.15048  0  3.372651  0  0  0.150393  0  3.360779  0  0  0.004165  0.149836  0  3.380619  0
S  S24  1  0.15815316  0.31445621  0.42491382  1  0  0.177134  0  2.618116  0  0.281652  0  0.187048  0  2.949098  0  0  0.187458  0  2.954441  0  0  0.106743  0.185813  0  2.946183  0
S  S25  1  0.84184740  0.68555706  0.57508896  1  0  0.17715  0  2.618159  0  0.281515  0  0.187077  0  2.94917  0  0  0.187486  0  2.95451  0  0  0.106725  0.185845  0  2.946254  0
I  I26  1  0.65107022  0.96400784  0.23359015  1  0  -0.334392  0  1.73139  0  -0.41988  0  -0.281772  0  2.16117  0  0  -0.299135  0  2.123835  0  0  -0.166729  -0.269719  0  2.185813  0
I  I27  1  0.34893291  0.03598279  0.76639862  1  0  -0.334419  0  1.731463  0  -0.419814  0  -0.281756  0  2.161184  0  0  -0.299145  0  2.123908  0  0  -0.166737  -0.269706  0  2.185834  0
I  I28  1  0.79192054  0.46800535  0.11251178  1  0  -0.272098  0  1.786286  0  -0.380648  0  -0.225514  0  2.229584  0  0  -0.242446  0  2.192635  0  0  -0.151788  -0.214008  0  2.254021  0
I  I29  1  0.20807764  0.53198684  0.88747100  1  0  -0.272176  0  1.786381  0  -0.380366  0  -0.225522  0  2.229546  0  0  -0.242503  0  2.192685  0  0  -0.151811  -0.214021  0  2.253981  0
N  N30  1  0.35941074  0.51099862  0.28327056  1  0  -0.289844  0  3.38031  0  -1.220362  0  -0.226532  0  3.671132  0  0  -0.239989  0  3.680372  0  0  -0.377373  -0.218231  0  3.665218  0
N  N31  1  0.64058964  0.48899626  0.71672357  1  0  -0.289918  0  3.380123  0  -1.220507  0  -0.226512  0  3.67086  0  0  -0.239953  0  3.680081  0  0  -0.377417  -0.218221  0  3.664955  0
