# generated using pymatgen
data_AlH2C8O5F3
_symmetry_space_group_name_H-M   'P 1'
_cell_length_a   6.65504315
_cell_length_b   8.77235940
_cell_length_c   11.23964649
_cell_angle_alpha   78.63738908
_cell_angle_beta   72.54361484
_cell_angle_gamma   75.68060552
_symmetry_Int_Tables_number   1
_chemical_formula_structural   AlH2C8O5F3
_chemical_formula_sum   'Al2 H4 C16 O10 F6'
_cell_volume   601.12982443
_cell_formula_units_Z   2
loop_
 _symmetry_equiv_pos_site_id
 _symmetry_equiv_pos_as_xyz
  1  'x, y, z'
loop_
 _atom_site_type_symbol
 _atom_site_label
 _atom_site_symmetry_multiplicity
 _atom_site_fract_x
 _atom_site_fract_y
 _atom_site_fract_z
 _atom_site_occupancy
 _atom_site_pbe_bader_charge
 _atom_site_pbe_bader_spin_density
 _atom_site_pbe_cm5_charge
 _atom_site_pbe_ddec_charge
 _atom_site_pbe_ddec_spin_density
 _atom_site_pbe_ddec_sum_bond_order
 _atom_site_pbe_magmom
Al  Al0  1  0.48209415  0.52707563  0.49230961  1  2.50226  0  0.397967  1.644776  0  2.566599  0
Al  Al1  1  0.98116457  0.52266655  0.49652439  1  2.506163  0  0.400143  1.645319  0  2.573324  0
H  H2  1  0.77860103  0.63229958  0.34353351  1  0.637226  0  0.356346  0.438049  0  0.842744  0
H  H3  1  0.25174252  0.33940683  0.58594363  1  0.631827  0  0.353154  0.434685  0  0.850977  0
H  H4  1  0.74560115  0.00562853  0.51026769  1  0.135573  0  0.122253  0.146594  0  0.966732  0
H  H5  1  0.20726859  0.03729520  0.49089194  1  0.123711  0  0.117582  0.13798  0  0.985613  0
C  C6  1  0.35286525  0.51535626  0.26770071  1  1.646743  0  0.266884  0.663507  0  4.119977  0
C  C7  1  0.13306879  0.80632345  0.49318716  1  1.566359  0  0.271419  0.684827  0  4.087648  0
C  C8  1  0.61052806  0.52059231  0.71931773  1  1.614448  0  0.270562  0.659234  0  4.12176  0
C  C9  1  0.82342366  0.23770320  0.50386538  1  1.559832  0  0.262604  0.675608  0  4.100362  0
C  C10  1  0.87608965  0.06341688  0.50481511  1  0.066612  0  -0.067783  -0.171145  0  3.8606  0
C  C11  1  0.07652245  0.97956938  0.49720850  1  -0.109057  0  -0.066103  -0.168463  0  3.876375  0
C  C12  1  0.42494614  0.50060229  0.12873984  1  0.08418  0  -0.01243  -0.149128  0  3.937569  0
C  C13  1  0.38989259  0.37699690  0.07604706  1  0.118225  0  -0.006983  -0.015874  0  4.013602  0
C  C14  1  0.52247963  0.61700532  0.04800503  1  0.475558  0  0.102062  0.167239  0  4.074463  0
C  C15  1  0.30981146  0.24495197  0.15282267  1  0.491107  0  0.092475  0.128779  0  4.073282  0
C  C16  1  0.26488529  0.12900088  0.10361619  1  0.618477  0  0.085028  0.08047  0  4.148444  0
C  C17  1  0.54291838  0.50602862  0.86129586  1  0.175926  0  -0.00797  -0.141674  0  3.927575  0
C  C18  1  0.58202248  0.61901630  0.91635518  1  0.510045  0  0.103389  0.168698  0  4.076135  0
C  C19  1  0.44492214  0.38110519  0.94103023  1  0.071826  0  -0.005182  -0.01438  0  4.005145  0
C  C20  1  0.40613878  0.25528149  0.89420556  1  0.548004  0  0.092173  0.130101  0  4.061303  0
C  C21  1  0.31228387  0.13521182  0.97238843  1  0.56745  0  0.085754  0.079535  0  4.153167  0
O  O22  1  0.50075294  0.51034869  0.31874588  1  -1.236404  0  -0.230787  -0.586465  0  2.336442  0
O  O23  1  0.98182117  0.73536845  0.50465934  1  -1.257596  0  -0.230194  -0.584948  0  2.335985  0
O  O24  1  0.81078105  0.50584899  0.66931629  1  -1.24316  0  -0.224868  -0.569044  0  2.33186  0
O  O25  1  0.62878565  0.30633096  0.50827101  1  -1.246824  0  -0.237446  -0.602469  0  2.333455  0
O  O26  1  0.46384623  0.54696242  0.66353063  1  -1.23363  0  -0.226116  -0.568218  0  2.334226  0
O  O27  1  0.97494870  0.30559854  0.49891907  1  -1.261918  0  -0.2389  -0.609491  0  2.378703  0
O  O28  1  0.15202467  0.53712397  0.31885408  1  -1.241181  0  -0.233775  -0.590828  0  2.320834  0
O  O29  1  0.33176312  0.74201360  0.47650722  1  -1.246505  0  -0.231997  -0.583842  0  2.294182  0
O  O30  1  0.74203287  0.59324587  0.43269571  1  -1.440089  0  -0.446909  -0.989656  0  2.185198  0
O  O31  1  0.22952400  0.45033242  0.55026297  1  -1.433551  0  -0.44856  -0.994674  0  2.201549  0
F  F32  1  0.67356871  0.73954629  0.84516165  1  -0.611329  0  -0.081134  -0.099929  0  1.366657  0
F  F33  1  0.55861911  0.73734852  0.09260045  1  -0.61574  0  -0.086553  -0.109008  0  1.376945  0
F  F34  1  0.46644118  0.24485095  0.76953242  1  -0.624537  0  -0.06918  -0.084487  0  1.443715  0
F  F35  1  0.27330399  0.01984228  0.92425050  1  -0.608304  0  -0.084408  -0.091211  0  1.379695  0
F  F36  1  0.18418219  0.00666619  0.17914263  1  -0.612029  0  -0.07992  -0.084901  0  1.389039  0
F  F37  1  0.28307132  0.22538181  0.27833962  1  -0.629698  0  -0.062597  -0.075564  0  1.458697  0
