# generated using pymatgen
data_CoH10C8S2(N2O3)2
_symmetry_space_group_name_H-M   'P 1'
_cell_length_a   6.92813259
_cell_length_b   6.85103459
_cell_length_c   7.34347920
_cell_angle_alpha   86.50337023
_cell_angle_beta   106.32091601
_cell_angle_gamma   116.02132683
_symmetry_Int_Tables_number   1
_chemical_formula_structural   CoH10C8S2(N2O3)2
_chemical_formula_sum   'Co1 H10 C8 S2 N4 O6'
_cell_volume   299.81707303
_cell_formula_units_Z   1
loop_
 _symmetry_equiv_pos_site_id
 _symmetry_equiv_pos_as_xyz
  1  'x, y, z'
loop_
 _atom_site_type_symbol
 _atom_site_label
 _atom_site_symmetry_multiplicity
 _atom_site_fract_x
 _atom_site_fract_y
 _atom_site_fract_z
 _atom_site_occupancy
 _atom_site_hse06_10hf_ddec_charge
 _atom_site_hse06_10hf_ddec_spin_density
 _atom_site_hse06_10hf_ddec_sum_bond_order
 _atom_site_hse06_10hf_magmom
 _atom_site_hse06_ddec_charge
 _atom_site_hse06_ddec_spin_density
 _atom_site_hse06_ddec_sum_bond_order
 _atom_site_hse06_magmom
 _atom_site_pbe_cm5_charge
 _atom_site_pbe_ddec_charge
 _atom_site_pbe_ddec_spin_density
 _atom_site_pbe_ddec_sum_bond_order
 _atom_site_pbe_magmom
Co  Co0  1  0.99999849  0.99999998  0.99999964  1  0.742911  -1.042791  2.714505  -0.996  0.844768  -1.048192  2.614467  -0.997  0.457654  0.692614  -1.034678  2.772851  -0.983
H  H1  1  0.92479705  0.02977380  0.60007857  1  0.290645  0.000297  1.022607  0.0  0.301586  0.00033  1.01343  0.0  0.303791  0.282965  0.000308  1.029097  0.0
H  H2  1  0.07520840  0.97023084  0.39992375  1  0.290648  0.000297  1.02266  0.0  0.301596  0.000329  1.013483  0.0  0.303774  0.282969  0.000308  1.029152  0.0
H  H3  1  0.57269897  0.38165599  0.60763324  1  0.306527  3.3e-05  0.97088  0.0  0.317762  9e-06  0.960804  0.0  0.308467  0.298666  3.9e-05  0.977873  0.0
H  H4  1  0.42730196  0.61834547  0.39236534  1  0.306529  3.3e-05  0.970809  0.0  0.317763  1e-05  0.960735  0.0  0.308437  0.298668  3.9e-05  0.977795  0.0
H  H5  1  0.80822618  0.40077067  0.13203694  1  0.169528  0.000121  1.04356  0.0  0.175723  0.000176  1.04014  0.0  0.104219  0.165341  0.000119  1.045847  0.0
H  H6  1  0.19176803  0.59922899  0.86796281  1  0.169627  0.000121  1.043478  0.0  0.175821  0.000175  1.040059  0.0  0.104256  0.16544  0.000119  1.045771  0.0
H  H7  1  0.69488010  0.67462300  0.12167434  1  0.396119  3e-05  0.93249  0.0  0.408416  -0.000582  0.915026  -0.001  0.300203  0.387676  0.000164  0.943241  0.0
H  H8  1  0.30512150  0.32538019  0.87832165  1  0.396082  3e-05  0.932533  0.0  0.408384  -0.000582  0.915061  -0.001  0.300175  0.387635  0.000164  0.943242  0.0
H  H9  1  0.64635902  0.63933124  0.89528204  1  0.390538  0.000183  0.945418  0.0  0.402049  0.000656  0.929035  0.001  0.29814  0.382593  0.000103  0.956815  0.0
H  H10  1  0.35363579  0.36066723  0.10470697  1  0.390594  0.000183  0.945359  0.0  0.402098  0.000656  0.928982  0.001  0.298176  0.382651  0.000103  0.956758  0.0
C  C11  1  0.75288728  0.19995887  0.62871879  1  0.423661  0.003026  4.072022  0.002  0.456101  0.002792  4.078143  0.001  0.246986  0.40209  0.004544  4.067999  0.003
C  C12  1  0.24712186  0.80004139  0.37127357  1  0.4237  0.003025  4.072044  0.002  0.456157  0.00279  4.078164  0.001  0.247033  0.402125  0.004544  4.068021  0.003
C  C13  1  0.67227223  0.40325728  0.36147597  1  0.539765  -0.000233  4.147034  0.0  0.57011  -0.000313  4.149175  0.0  0.208583  0.519618  -0.000189  4.145035  0.0
C  C14  1  0.32773320  0.59674121  0.63851828  1  0.53984  -0.000232  4.146846  0.0  0.570193  -0.000314  4.148976  0.0  0.208648  0.519686  -0.000189  4.144855  0.0
C  C15  1  0.79217132  0.34421071  0.27050338  1  -0.507601  0.001152  3.984596  0.001  -0.529991  0.001885  3.997913  0.001  -0.150812  -0.493252  0.001247  3.975487  0.001
C  C16  1  0.20781686  0.65579503  0.72950302  1  -0.507711  0.001151  3.984431  0.001  -0.530102  0.001887  3.997748  0.001  -0.150847  -0.493364  0.001247  3.975327  0.001
C  C17  1  0.88400133  0.20347584  0.35407080  1  0.56882  -0.001508  4.123588  -0.003  0.60188  -0.001335  4.122964  -0.003  0.215247  0.547142  -0.001651  4.122954  -0.004
C  C18  1  0.11599667  0.79652230  0.64592851  1  0.568639  -0.001509  4.123703  -0.003  0.6017  -0.001335  4.123093  -0.003  0.215151  0.546965  -0.001652  4.12305  -0.004
S  S19  1  0.73583378  0.11866104  0.84898807  1  -0.312031  0.019683  2.518565  0.011  -0.350837  0.015714  2.509028  0.007  -0.115731  -0.290864  0.018733  2.525767  0.01
S  S20  1  0.26416869  0.88134346  0.15101629  1  -0.312068  0.019677  2.518743  0.011  -0.350866  0.015711  2.5092  0.007  -0.115743  -0.290902  0.018728  2.525946  0.01
N  N21  1  0.85887331  0.13813079  0.53274185  1  -0.407515  -6e-05  3.572487  -0.001  -0.432254  0.000672  3.57666  0.0  -0.385495  -0.39146  -0.000249  3.569509  -0.001
N  N22  1  0.14112611  0.86187065  0.46725638  1  -0.407427  -6e-05  3.572246  -0.001  -0.432227  0.000672  3.576494  0.0  -0.385488  -0.391371  -0.000249  3.569264  -0.001
N  N23  1  0.65659649  0.32858652  0.53959807  1  -0.390822  0.001337  3.551106  0.001  -0.414209  0.001845  3.553875  0.001  -0.379559  -0.375475  0.001524  3.549124  0.001
N  N24  1  0.34340083  0.67141295  0.46040787  1  -0.390868  0.001336  3.551353  0.001  -0.414255  0.001841  3.554114  0.001  -0.379563  -0.375528  0.001523  3.549391  0.001
O  O25  1  0.57189329  0.52346202  0.29049601  1  -0.564316  0.000786  2.197399  0.001  -0.588972  0.000131  2.187445  0.0  -0.313351  -0.547009  0.001009  2.203515  0.001
O  O26  1  0.42810612  0.47654255  0.70950489  1  -0.564296  0.000786  2.197553  0.001  -0.588969  0.000131  2.187616  0.0  -0.313337  -0.546985  0.001009  2.203661  0.001
O  O27  1  0.99002715  0.13041005  0.28317965  1  -0.530027  -0.014083  2.290187  -0.021  -0.560032  -0.012165  2.276677  -0.018  -0.302363  -0.510482  -0.016683  2.298537  -0.025
O  O28  1  0.00997112  0.86958128  0.71682801  1  -0.529983  -0.014083  2.290154  -0.021  -0.559974  -0.012165  2.276639  -0.018  -0.302353  -0.510425  -0.016683  2.298487  -0.025
O  O29  1  0.76534316  0.71409236  0.01497059  1  -0.744731  0.010636  2.367449  0.009  -0.779691  0.014287  2.328724  0.011  -0.567139  -0.723842  0.008326  2.392354  0.007
O  O30  1  0.23465716  0.28590413  0.98503066  1  -0.744779  0.010634  2.367453  0.009  -0.779729  0.014286  2.328742  0.011  -0.567157  -0.723884  0.008324  2.392326  0.007
