# generated using pymatgen
data_CdH5C5Br2NO
_symmetry_space_group_name_H-M   'P 1'
_cell_length_a   6.49165307
_cell_length_b   7.07208460
_cell_length_c   10.46493101
_cell_angle_alpha   71.58728598
_cell_angle_beta   82.91357638
_cell_angle_gamma   64.98438103
_symmetry_Int_Tables_number   1
_chemical_formula_structural   CdH5C5Br2NO
_chemical_formula_sum   'Cd2 H10 C10 Br4 N2 O2'
_cell_volume   413.05362779
_cell_formula_units_Z   2
loop_
 _symmetry_equiv_pos_site_id
 _symmetry_equiv_pos_as_xyz
  1  'x, y, z'
loop_
 _atom_site_type_symbol
 _atom_site_label
 _atom_site_symmetry_multiplicity
 _atom_site_fract_x
 _atom_site_fract_y
 _atom_site_fract_z
 _atom_site_occupancy
 _atom_site_hle17_bader_spin_density
 _atom_site_hle17_ddec_charge
 _atom_site_hle17_ddec_spin_density
 _atom_site_hle17_ddec_sum_bond_order
 _atom_site_hle17_magmom
 _atom_site_hse06_10hf_bader_spin_density
 _atom_site_hse06_10hf_ddec_charge
 _atom_site_hse06_10hf_ddec_spin_density
 _atom_site_hse06_10hf_ddec_sum_bond_order
 _atom_site_hse06_10hf_magmom
 _atom_site_hse06_bader_spin_density
 _atom_site_hse06_ddec_charge
 _atom_site_hse06_ddec_spin_density
 _atom_site_hse06_ddec_sum_bond_order
 _atom_site_hse06_magmom
 _atom_site_pbe_bader_spin_density
 _atom_site_pbe_cm5_charge
 _atom_site_pbe_ddec_charge
 _atom_site_pbe_ddec_spin_density
 _atom_site_pbe_ddec_sum_bond_order
 _atom_site_pbe_magmom
Cd  Cd0  1  0.32945149  0.32363080  0.49573753  1  0  0.960333  0  1.920161  0  0  0.805889  0  2.386963  0  0  0.860577  0  2.338082  0  0  0.523112  0.76802  0  2.419417  0
Cd  Cd1  1  0.67054450  0.67637013  0.50426369  1  0  0.960333  0  1.920123  0  0  0.805888  0  2.386926  0  0  0.860577  0  2.338045  0  0  0.52311  0.768018  0  2.419383  0
H  H2  1  0.15716022  0.05681913  0.32085463  1  0  0.117846  0  0.953874  0  0  0.120263  0  1.024976  0  0  0.124309  0  1.020128  0  0  0.112583  0.117106  0  1.028856  0
H  H3  1  0.84284237  0.94317687  0.67914327  1  0  0.117886  0  0.953811  0  0  0.120272  0  1.024946  0  0  0.124317  0  1.020099  0  0  0.112577  0.117118  0  1.028827  0
H  H4  1  0.06206857  0.29303434  0.08204966  1  0  0.110417  0  0.936564  0  0  0.120211  0  0.993893  0  0  0.12354  0  0.992989  0  0  0.104663  0.11731  0  0.995558  0
H  H5  1  0.93794686  0.70696462  0.91795037  1  0  0.110403  0  0.936569  0  0  0.120185  0  0.993908  0  0  0.123517  0  0.993001  0  0  0.10465  0.117287  0  0.995569  0
H  H6  1  0.19514981  0.11605010  0.89376011  1  0  0.104073  0  0.965694  0  0  0.108118  0  1.036547  0  0  0.111944  0  1.033367  0  0  0.090299  0.104909  0  1.039523  0
H  H7  1  0.80486522  0.88395370  0.10624083  1  0  0.104092  0  0.965662  0  0  0.10811  0  1.036545  0  0  0.111983  0  1.03332  0  0  0.090323  0.104904  0  1.039508  0
H  H8  1  0.42086060  0.71283896  0.95454441  1  0  0.105562  0  0.953072  0  0  0.115539  0  1.01181  0  0  0.118408  0  1.011562  0  0  0.101598  0.113927  0  1.011405  0
H  H9  1  0.57913034  0.28715890  0.04545215  1  0  0.105584  0  0.95306  0  0  0.11554  0  1.011827  0  0  0.118408  0  1.011579  0  0  0.101579  0.11393  0  1.01142  0
H  H10  1  0.50879595  0.49778665  0.20278539  1  0  0.106427  0  0.978537  0  0  0.11219  0  1.049249  0  0  0.116315  0  1.044399  0  0  0.108382  0.109089  0  1.052847  0
H  H11  1  0.49118005  0.50220984  0.79721460  1  0  0.10644  0  0.978499  0  0  0.11213  0  1.049285  0  0  0.116255  0  1.044437  0  0  0.108443  0.109051  0  1.05286  0
C  C12  1  0.21165463  0.99275844  0.23500130  1  0  0.035733  0  3.589236  0  0  -0.006  0  3.849861  0  0  0.003569  0  3.859839  0  0  0.041026  -0.012069  0  3.84322  0
C  C13  1  0.78834833  0.00724072  0.76500163  1  0  0.035662  0  3.589373  0  0  -0.006034  0  3.849975  0  0  0.003534  0  3.859957  0  0  0.040997  -0.012113  0  3.843345  0
C  C14  1  0.16095337  0.11798753  0.10193152  1  0  -0.093353  0  3.740312  0  0  -0.103299  0  3.99301  0  0  -0.110719  0  4.013087  0  0  -0.079826  -0.099007  0  3.979768  0
C  C15  1  0.83905906  0.88201478  0.89806327  1  0  -0.093483  0  3.74045  0  0  -0.103425  0  3.99315  0  0  -0.11085  0  4.013243  0  0  -0.079882  -0.099134  0  3.97991  0
C  C16  1  0.23437479  0.01971195  0.99889791  1  0  -0.020772  0  3.728334  0  0  -0.042937  0  3.978815  0  0  -0.038255  0  3.996925  0  0  -0.074949  -0.045388  0  3.966397  0
C  C17  1  0.76563731  0.98029517  0.00110066  1  0  -0.020595  0  3.727968  0  0  -0.04274  0  3.978429  0  0  -0.038097  0  3.99652  0  0  -0.074878  -0.045187  0  3.965999  0
C  C18  1  0.36009348  0.79432746  0.03287794  1  0  -0.097748  0  3.758432  0  0  -0.105171  0  4.00668  0  0  -0.112681  0  4.028254  0  0  -0.081938  -0.10047  0  3.991579  0
C  C19  1  0.63989561  0.20567521  0.96712444  1  0  -0.097866  0  3.758268  0  0  -0.105273  0  4.006514  0  0  -0.112786  0  4.028099  0  0  -0.08195  -0.100574  0  3.991423  0
C  C20  1  0.41039033  0.67335566  0.16638288  1  0  0.009808  0  3.60879  0  0  -0.032615  0  3.86925  0  0  -0.02463  0  3.881002  0  0  0.031116  -0.037551  0  3.861485  0
C  C21  1  0.58961149  0.32663866  0.83362117  1  0  0.00988  0  3.608717  0  0  -0.032482  0  3.869229  0  0  -0.024497  0  3.880986  0  0  0.031091  -0.037437  0  3.861461  0
Br  Br22  1  0.34673186  0.91884427  0.65443415  1  0  -0.530637  0  1.078266  0  0  -0.465233  0  1.393967  0  0  -0.490457  0  1.370864  0  0  -0.247623  -0.4473  0  1.409359  0
Br  Br23  1  0.65326773  0.08115172  0.34556973  1  0  -0.530624  0  1.078255  0  0  -0.465217  0  1.393958  0  0  -0.49044  0  1.370854  0  0  -0.247614  -0.447283  0  1.409347  0
Br  Br24  1  0.02673539  0.50900637  0.68013239  1  0  -0.521837  0  1.07284  0  0  -0.455951  0  1.384531  0  0  -0.481294  0  1.362461  0  0  -0.248122  -0.437444  0  1.399563  0
Br  Br25  1  0.97326598  0.49099284  0.31986971  1  0  -0.52184  0  1.072842  0  0  -0.455985  0  1.384579  0  0  -0.481331  0  1.362518  0  0  -0.24814  -0.437482  0  1.399607  0
N  N26  1  0.33585000  0.77435678  0.26458492  1  0  0.266611  0  3.682857  0  0  0.317599  0  3.939694  0  0  0.315772  0  3.961588  0  0  -0.122657  0.318137  0  3.924856  0
N  N27  1  0.66414237  0.22563776  0.73541700  1  0  0.266636  0  3.682895  0  0  0.317613  0  3.939724  0  0  0.315783  0  3.961619  0  0  -0.122659  0.318152  0  3.924897  0
O  O28  1  0.38496859  0.65738557  0.39316973  1  0  -0.552483  0  1.951128  0  0  -0.488599  0  2.218578  0  0  -0.516398  0  2.215724  0  0  -0.257667  -0.469264  0  2.219855  0
O  O29  1  0.61503181  0.34261207  0.60682991  1  0  -0.552488  0  1.951097  0  0  -0.488588  0  2.218527  0  0  -0.516375  0  2.215665  0  0  -0.257646  -0.46925  0  2.219808  0
