# generated using pymatgen
data_LiH2C2O3
_symmetry_space_group_name_H-M   'P 1'
_cell_length_a   5.36323317
_cell_length_b   5.55800130
_cell_length_c   11.27855328
_cell_angle_alpha   93.35370165
_cell_angle_beta   89.99232250
_cell_angle_gamma   118.82795576
_symmetry_Int_Tables_number   1
_chemical_formula_structural   LiH2C2O3
_chemical_formula_sum   'Li4 H8 C8 O12'
_cell_volume   293.87999108
_cell_formula_units_Z   4
loop_
 _symmetry_equiv_pos_site_id
 _symmetry_equiv_pos_as_xyz
  1  'x, y, z'
loop_
 _atom_site_type_symbol
 _atom_site_label
 _atom_site_symmetry_multiplicity
 _atom_site_fract_x
 _atom_site_fract_y
 _atom_site_fract_z
 _atom_site_occupancy
 _atom_site_hle17_bader_spin_density
 _atom_site_hle17_ddec_charge
 _atom_site_hle17_ddec_spin_density
 _atom_site_hle17_ddec_sum_bond_order
 _atom_site_hle17_magmom
 _atom_site_hse06_10hf_bader_spin_density
 _atom_site_hse06_10hf_ddec_charge
 _atom_site_hse06_10hf_ddec_spin_density
 _atom_site_hse06_10hf_ddec_sum_bond_order
 _atom_site_hse06_10hf_magmom
 _atom_site_hse06_bader_spin_density
 _atom_site_hse06_ddec_charge
 _atom_site_hse06_ddec_spin_density
 _atom_site_hse06_ddec_sum_bond_order
 _atom_site_hse06_magmom
 _atom_site_pbe_bader_spin_density
 _atom_site_pbe_cm5_charge
 _atom_site_pbe_ddec_charge
 _atom_site_pbe_ddec_spin_density
 _atom_site_pbe_ddec_sum_bond_order
 _atom_site_pbe_magmom
Li  Li0  1  0.45448292  0.11288709  0.17273515  1  0  0.859176  0  0.374359  0  0  0.817496  0  0.480044  0  0  0.827621  0  0.462897  0  0  0.517682  0.810104  0  0.492451  0
Li  Li1  1  0.65763248  0.11261550  0.67278222  1  0  0.859226  0  0.374205  0  0  0.817659  0  0.479674  0  0  0.827781  0  0.462567  0  0  0.517746  0.810262  0  0.492065  0
Li  Li2  1  0.23342306  0.55400274  0.81431482  1  0  0.852482  0  0.393992  0  0  0.811522  0  0.500596  0  0  0.821063  0  0.484212  0  0  0.523261  0.804506  0  0.512515  0
Li  Li3  1  0.32103481  0.55402466  0.31432323  1  0  0.852472  0  0.393031  0  0  0.811549  0  0.499663  0  0  0.821151  0  0.483196  0  0  0.522489  0.804519  0  0.511607  0
H  H4  1  0.83241036  0.90897015  0.89924292  1  0  0.083043  0  0.905346  0  0  0.091953  0  0.964499  0  0  0.094747  0  0.962387  0  0  0.138727  0.089949  0  0.966114  0
H  H5  1  0.07670815  0.90832843  0.39959671  1  0  0.083065  0  0.904909  0  0  0.091793  0  0.964126  0  0  0.094447  0  0.962168  0  0  0.138794  0.089865  0  0.965683  0
H  H6  1  0.68566566  0.71627597  0.09238108  1  0  0.080077  0  0.925733  0  0  0.085469  0  0.991875  0  0  0.0884  0  0.989358  0  0  0.13565  0.083308  0  0.993905  0
H  H7  1  0.03006765  0.71573466  0.59286452  1  0  0.080152  0  0.926293  0  0  0.085043  0  0.992442  0  0  0.088031  0  0.989929  0  0  0.135496  0.082838  0  0.994442  0
H  H8  1  0.29176324  0.06156024  0.88616176  1  0  0.395788  0  0.90474  0  0  0.369261  0  0.977985  0  0  0.380963  0  0.960786  0  0  0.313893  0.360997  0  0.987962  0
H  H9  1  0.77009040  0.06103304  0.38632313  1  0  0.3949  0  0.905697  0  0  0.368527  0  0.978965  0  0  0.380231  0  0.961813  0  0  0.313666  0.360249  0  0.988707  0
H  H10  1  0.99722075  0.17125398  0.10843094  1  0  0.390175  0  0.920041  0  0  0.36324  0  0.988484  0  0  0.374809  0  0.971715  0  0  0.312506  0.355129  0  1.000212  0
H  H11  1  0.17322155  0.17098681  0.60851547  1  0  0.389741  0  0.921463  0  0  0.363464  0  0.988218  0  0  0.37495  0  0.971574  0  0  0.312413  0.355398  0  0.999885  0
C  C12  1  0.91018813  0.76983130  0.92819437  1  0  0.059798  0  3.640546  0  0  0.036895  0  3.888163  0  0  0.037697  0  3.894586  0  0  0.013743  0.036258  0  3.88378  0
C  C13  1  0.85981547  0.76919579  0.42847599  1  0  0.059675  0  3.637355  0  0  0.037334  0  3.884335  0  0  0.038259  0  3.89081  0  0  0.013842  0.036596  0  3.879934  0
C  C14  1  0.00188997  0.59112101  0.11581271  1  0  0.693396  0  3.822809  0  0  0.643994  0  4.122004  0  0  0.67642  0  4.112823  0  0  0.244089  0.621955  0  4.127689  0
C  C15  1  0.58839148  0.59071360  0.61593287  1  0  0.691388  0  3.825357  0  0  0.642414  0  4.12346  0  0  0.674784  0  4.114452  0  0  0.243348  0.620358  0  4.129101  0
C  C16  1  0.70858495  0.48030483  0.87449389  1  0  0.681115  0  3.866588  0  0  0.630831  0  4.171053  0  0  0.663316  0  4.161981  0  0  0.235985  0.608682  0  4.17675  0
C  C17  1  0.77212870  0.47972164  0.37469300  1  0  0.683028  0  3.863866  0  0  0.631833  0  4.169558  0  0  0.664309  0  4.160473  0  0  0.236368  0.609688  0  4.175271  0
C  C18  1  0.90687139  0.78441702  0.06637466  1  0  0.056706  0  3.653104  0  0  0.032308  0  3.90221  0  0  0.033186  0  3.908673  0  0  0.012919  0.031545  0  3.897814  0
C  C19  1  0.87708278  0.78379049  0.56664347  1  0  0.056878  0  3.652446  0  0  0.033859  0  3.899197  0  0  0.034591  0  3.905965  0  0  0.012818  0.033252  0  3.894562  0
O  O20  1  0.44294071  0.39150450  0.88609383  1  0  -0.693646  0  1.992928  0  0  -0.649956  0  2.235811  0  0  -0.672443  0  2.221956  0  0  -0.360303  -0.634384  0  2.244749  0
O  O21  1  0.94886348  0.39069439  0.38609785  1  0  -0.693168  0  1.992905  0  0  -0.649561  0  2.236712  0  0  -0.672052  0  2.222865  0  0  -0.360663  -0.633977  0  2.245607  0
O  O22  1  0.18915217  0.85423600  0.88815076  1  0  -0.637977  0  2.110537  0  0  -0.59536  0  2.343156  0  0  -0.608775  0  2.324421  0  0  -0.447479  -0.585785  0  2.354293  0
O  O23  1  0.66534168  0.85376673  0.38837154  1  0  -0.637763  0  2.109595  0  0  -0.595256  0  2.342164  0  0  -0.608668  0  2.323295  0  0  -0.44751  -0.585681  0  2.353239  0
O  O24  1  0.81685325  0.34737897  0.82037021  1  0  -0.753005  0  1.957789  0  0  -0.709329  0  2.202615  0  0  -0.730179  0  2.188451  0  0  -0.42821  -0.694922  0  2.212187  0
O  O25  1  0.53095138  0.34690833  0.32062197  1  0  -0.754365  0  1.955886  0  0  -0.710503  0  2.201436  0  0  -0.731351  0  2.187208  0  0  -0.427962  -0.696109  0  2.211055  0
O  O26  1  0.82925198  0.33407150  0.09981233  1  0  -0.683641  0  1.987349  0  0  -0.631224  0  2.217269  0  0  -0.655509  0  2.205343  0  0  -0.348492  -0.614345  0  2.225096  0
O  O27  1  0.50364168  0.33356404  0.59994578  1  0  -0.682043  0  1.988317  0  0  -0.630555  0  2.218257  0  0  -0.654752  0  2.20636  0  0  -0.347757  -0.613707  0  2.226059  0
O  O28  1  0.09484570  0.05480127  0.11307800  1  0  -0.639604  0  2.140353  0  0  -0.598283  0  2.376028  0  0  -0.611906  0  2.357467  0  0  -0.458088  -0.58844  0  2.388752  0
O  O29  1  0.95920056  0.05432384  0.61319109  1  0  -0.639265  0  2.140882  0  0  -0.598831  0  2.375287  0  0  -0.612381  0  2.356891  0  0  -0.457819  -0.589062  0  2.387898  0
O  O30  1  0.24416558  0.69597976  0.16899927  1  0  -0.743918  0  1.931431  0  0  -0.69879  0  2.173628  0  0  -0.719383  0  2.158539  0  0  -0.405257  -0.684527  0  2.183811  0
O  O31  1  0.45101581  0.69580425  0.66902241  1  0  -0.743887  0  1.935162  0  0  -0.698794  0  2.17673  0  0  -0.719358  0  2.161748  0  0  -0.405894  -0.684519  0  2.186857  0
