# generated using pymatgen
data_ZnSiH8C8(N2F3)2
_symmetry_space_group_name_H-M   'P 1'
_cell_length_a   7.16542035
_cell_length_b   7.16548136
_cell_length_c   7.67101583
_cell_angle_alpha   89.99998494
_cell_angle_beta   90.00000034
_cell_angle_gamma   89.99988976
_symmetry_Int_Tables_number   1
_chemical_formula_structural   ZnSiH8C8(N2F3)2
_chemical_formula_sum   'Zn1 Si1 H8 C8 N4 F6'
_cell_volume   393.85822752
_cell_formula_units_Z   1
loop_
 _symmetry_equiv_pos_site_id
 _symmetry_equiv_pos_as_xyz
  1  'x, y, z'
loop_
 _atom_site_type_symbol
 _atom_site_label
 _atom_site_symmetry_multiplicity
 _atom_site_fract_x
 _atom_site_fract_y
 _atom_site_fract_z
 _atom_site_occupancy
 _atom_site_pbe_bader_spin_density
 _atom_site_pbe_cm5_charge
 _atom_site_pbe_ddec_charge
 _atom_site_pbe_ddec_spin_density
 _atom_site_pbe_ddec_sum_bond_order
 _atom_site_pbe_magmom
Zn  Zn0  1  0.49999950  0.50000075  0.50000021  1  0  0.702956  0.734734  0  2.355547  0
Si  Si1  1  0.49999810  0.49999928  0.00000048  1  0  0.260165  1.711128  0  3.96459  0
H  H2  1  0.49999981  0.17476653  0.22783291  1  0  0.125517  0.116998  0  1.028999  0
H  H3  1  0.49999918  0.82523086  0.22783283  1  0  0.125508  0.11698  0  1.028986  0
H  H4  1  0.82523233  0.50000048  0.22783287  1  0  0.125515  0.116985  0  1.029008  0
H  H5  1  0.17476945  0.50000110  0.22783156  1  0  0.125502  0.116968  0  1.029008  0
H  H6  1  0.49999981  0.17476785  0.77216629  1  0  0.125512  0.116985  0  1.029018  0
H  H7  1  0.49999918  0.82523357  0.77216751  1  0  0.125509  0.116984  0  1.028978  0
H  H8  1  0.17476805  0.50000103  0.77216755  1  0  0.125487  0.116954  0  1.028974  0
H  H9  1  0.82523234  0.50000040  0.77216625  1  0  0.125496  0.116967  0  1.028974  0
C  C10  1  0.49999988  0.09724207  0.34993409  1  0  0.067382  0.064726  0  3.851224  0
C  C11  1  0.50000050  0.90275669  0.34993529  1  0  0.067398  0.064768  0  3.851214  0
C  C12  1  0.90275744  0.50000038  0.34993404  1  0  0.067404  0.064773  0  3.851188  0
C  C13  1  0.09724434  0.49999976  0.34993404  1  0  0.067391  0.064781  0  3.851185  0
C  C14  1  0.49999988  0.09724342  0.65006644  1  0  0.067365  0.064715  0  3.851272  0
C  C15  1  0.50000050  0.90275804  0.65006634  1  0  0.067385  0.064748  0  3.851221  0
C  C16  1  0.09724434  0.49999972  0.65006508  1  0  0.06741  0.064788  0  3.851144  0
C  C17  1  0.90275744  0.50000034  0.65006508  1  0  0.067429  0.06479  0  3.851138  0
N  N18  1  0.49999979  0.19454046  0.50000025  1  0  -0.29644  -0.194898  0  3.502605  0
N  N19  1  0.49999920  0.80545825  0.50000017  1  0  -0.296458  -0.194939  0  3.50264  0
N  N20  1  0.80545680  0.50000046  0.50000021  1  0  -0.29647  -0.194956  0  3.502659  0
N  N21  1  0.19454359  0.50000104  0.50000021  1  0  -0.296482  -0.194985  0  3.502663  0
F  F22  1  0.50000089  0.50000079  0.23019240  1  0  -0.195849  -0.497717  0  1.369455  0
F  F23  1  0.50000089  0.50000071  0.76980672  1  0  -0.195836  -0.497707  0  1.369443  0
F  F24  1  0.33275336  0.33275751  0.99999996  1  0  -0.232194  -0.531147  0  1.094155  0
F  F25  1  0.66724284  0.66724399  0.00000046  1  0  -0.232194  -0.531135  0  1.094155  0
F  F26  1  0.66724316  0.33275579  0.99999996  1  0  -0.232198  -0.531141  0  1.094165  0
F  F27  1  0.33275165  0.66724292  0.00000046  1  0  -0.232211  -0.531147  0  1.094137  0
