# generated using pymatgen
data_FeH10(C2O3)4
_symmetry_space_group_name_H-M   'P 1'
_cell_length_a   5.12456872
_cell_length_b   7.38769030
_cell_length_c   8.77147573
_cell_angle_alpha   66.91642586
_cell_angle_beta   77.14369688
_cell_angle_gamma   75.20325921
_symmetry_Int_Tables_number   1
_chemical_formula_structural   FeH10(C2O3)4
_chemical_formula_sum   'Fe1 H10 C8 O12'
_cell_volume   292.54916562
_cell_formula_units_Z   1
loop_
 _symmetry_equiv_pos_site_id
 _symmetry_equiv_pos_as_xyz
  1  'x, y, z'
loop_
 _atom_site_type_symbol
 _atom_site_label
 _atom_site_symmetry_multiplicity
 _atom_site_fract_x
 _atom_site_fract_y
 _atom_site_fract_z
 _atom_site_occupancy
 _atom_site_hle17_ddec_charge
 _atom_site_hle17_ddec_spin_density
 _atom_site_hle17_ddec_sum_bond_order
 _atom_site_hle17_magmom
 _atom_site_hse06_10hf_ddec_charge
 _atom_site_hse06_10hf_ddec_spin_density
 _atom_site_hse06_10hf_ddec_sum_bond_order
 _atom_site_hse06_10hf_magmom
 _atom_site_hse06_ddec_charge
 _atom_site_hse06_ddec_spin_density
 _atom_site_hse06_ddec_sum_bond_order
 _atom_site_hse06_magmom
 _atom_site_pbe_cm5_charge
 _atom_site_pbe_ddec_charge
 _atom_site_pbe_ddec_spin_density
 _atom_site_pbe_ddec_sum_bond_order
 _atom_site_pbe_magmom
Fe  Fe0  1  0.00213151  0.99851244  0.00074597  1  1.242399  3.931142  1.89237  3.704  1.141004  3.907615  2.360884  3.701  1.192105  3.912589  2.285199  3.737  0.693839  1.101475  3.903285  2.413206  3.664
H  H1  1  0.98446440  0.01163702  0.50091702  1  0.38347  7.4e-05  0.917109  0.0  0.345653  7.2e-05  1.002839  0.0  0.35794  3e-05  0.992368  0.0  0.300818  0.33625  4.8e-05  1.011158  0.0
H  H2  1  0.98023730  0.50813774  0.49719331  1  0.375706  1e-06  0.925103  0.0  0.34171  -4.9e-05  1.00844  0.0  0.354832  -3.4e-05  0.996456  0.0  0.296746  0.331817  -5.3e-05  1.017841  0.0
H  H3  1  0.24134731  0.83886535  0.27978292  1  0.42837  -6.8e-05  0.872002  0.001  0.394358  0.000203  0.940165  0.002  0.405122  4.7e-05  0.92474  0.002  0.297781  0.388274  0.000447  0.948827  0.002
H  H4  1  0.76274899  0.15982996  0.72295045  1  0.427312  -0.000101  0.871407  0.001  0.393526  0.000173  0.939046  0.002  0.403774  2.2e-05  0.924317  0.002  0.301031  0.387695  0.000415  0.947373  0.002
H  H5  1  0.47092631  0.79253080  0.13370445  1  0.437568  -4.5e-05  0.860658  0.002  0.408548  0.000228  0.920417  0.002  0.418945  2.9e-05  0.905584  0.002  0.294677  0.401345  0.0004  0.930365  0.002
H  H6  1  0.53148281  0.20712745  0.86728936  1  0.438945  -5.4e-05  0.858667  0.001  0.409364  0.000207  0.919262  0.002  0.41983  1.7e-05  0.904337  0.002  0.294857  0.402114  0.000375  0.929298  0.002
H  H7  1  0.81693231  0.69911482  0.96640521  1  0.418908  -0.000516  0.886971  -0.001  0.383569  -0.000272  0.95672  0.0  0.394372  -0.000352  0.941428  0.0  0.295148  0.376877  -0.000169  0.966156  0.0
H  H8  1  0.18451674  0.29946655  0.03297825  1  0.41876  -0.000547  0.885819  -0.001  0.383998  -0.000298  0.954931  0.0  0.394882  -0.000377  0.939478  0.0  0.296353  0.377281  -0.000197  0.964433  0.0
H  H9  1  0.90544385  0.62263623  0.14504597  1  0.430376  -0.000107  0.854974  0.0  0.394852  0.000165  0.934513  0.001  0.404877  5.7e-05  0.919992  0.001  0.303872  0.388413  0.000265  0.94367  0.001
H  H10  1  0.09733301  0.37590396  0.85399964  1  0.434609  -9.3e-05  0.849106  0.0  0.398256  0.00017  0.929686  0.001  0.408376  6.5e-05  0.915034  0.001  0.304272  0.39182  0.000268  0.938813  0.001
C  C11  1  0.60639530  0.18213601  0.27445495  1  0.221313  -0.012881  3.864523  -0.007  0.200272  -0.00892  4.14642  -0.003  0.217983  -0.004484  4.155204  0.0  0.109729  0.186193  -0.013491  4.142161  -0.006
C  C12  1  0.39410662  0.81558517  0.72547482  1  0.23366  -0.01946  3.823648  -0.011  0.211048  -0.014085  4.106868  -0.006  0.231325  -0.007142  4.111915  -0.002  0.114865  0.194601  -0.021488  4.10603  -0.011
C  C13  1  0.63523688  0.20201096  0.42891482  1  0.178277  0.00147  3.76749  0.004  0.145114  0.00066  4.059421  0.003  0.152175  0.000266  4.073512  0.002  0.101271  0.140033  0.001089  4.051958  0.004
C  C14  1  0.36662466  0.79697256  0.56802715  1  0.196083  0.002281  3.82575  0.005  0.162149  0.001076  4.118723  0.004  0.171904  0.000624  4.131608  0.002  0.105847  0.155479  0.001514  4.11236  0.005
C  C15  1  0.37256891  0.33269820  0.43363146  1  0.20955  -0.010782  3.831225  -0.006  0.178194  -0.008303  4.128185  -0.005  0.194198  -0.004923  4.135904  -0.003  0.106905  0.166267  -0.011897  4.12469  -0.007
C  C16  1  0.63025801  0.66722244  0.56814941  1  0.198801  -0.018087  3.761108  -0.011  0.1669  -0.013713  4.057507  -0.008  0.181668  -0.008171  4.064609  -0.004  0.105358  0.155038  -0.019594  4.05519  -0.012
C  C17  1  0.33485213  0.31865040  0.27548169  1  0.234016  0.001596  3.797872  0.004  0.20338  0.001143  4.082596  0.003  0.219372  0.000671  4.087677  0.002  0.123448  0.192885  0.001591  4.080596  0.004
C  C18  1  0.66672441  0.67997063  0.72477502  1  0.219089  0.001902  3.837485  0.005  0.190091  0.00108  4.12137  0.003  0.20438  0.000633  4.128172  0.002  0.117359  0.180777  0.001438  4.118658  0.005
O  O19  1  0.74113019  0.08426811  0.18536757  1  -0.501315  0.021462  2.217664  0.043  -0.450765  0.022144  2.482398  0.04  -0.475132  0.017826  2.4718  0.031  -0.299975  -0.433069  0.026626  2.489046  0.048
O  O20  1  0.25672151  0.91220837  0.81463022  1  -0.492681  0.021902  2.219799  0.045  -0.442539  0.022203  2.485483  0.041  -0.465327  0.018117  2.472633  0.032  -0.294274  -0.426487  0.026089  2.494091  0.049
O  O21  1  0.81560425  0.12545414  0.53152024  1  -0.457643  0.000221  2.28369  0.001  -0.390531  0.000229  2.508167  0.001  -0.413502  5.5e-05  2.505246  0.0  -0.29135  -0.374918  0.000411  2.510681  0.001
O  O22  1  0.18961826  0.87295665  0.46701218  1  -0.483841  0.000489  2.203158  0.001  -0.419669  0.000491  2.426902  0.001  -0.443105  0.000212  2.426143  0.001  -0.280931  -0.40424  0.000819  2.427888  0.002
O  O23  1  0.23187305  0.41411358  0.53569979  1  -0.446164  -0.003349  2.121381  -0.002  -0.396703  -0.003894  2.346347  -0.003  -0.416547  -0.002749  2.341917  -0.002  -0.288152  -0.383215  -0.004994  2.349344  -0.004
O  O24  1  0.77410913  0.58519928  0.46358509  1  -0.416011  -0.0041  2.201953  -0.003  -0.362603  -0.004864  2.427053  -0.004  -0.381202  -0.003176  2.418953  -0.002  -0.297462  -0.350307  -0.006652  2.433371  -0.005
O  O25  1  0.14960595  0.38433205  0.18543467  1  -0.465796  0.000207  2.119029  0.001  -0.403655  0.000315  2.329702  0.001  -0.423456  5.5e-05  2.324693  0.001  -0.266738  -0.391492  0.000736  2.33359  0.002
O  O26  1  0.85156553  0.61406020  0.81567761  1  -0.473837  0.000322  2.120309  0.001  -0.411795  0.000409  2.331779  0.001  -0.431961  0.000105  2.327383  0.001  -0.273744  -0.399547  0.000867  2.335404  0.002
O  O27  1  0.26952927  0.82277567  0.16953359  1  -0.85429  0.0277  1.929214  0.04  -0.801638  0.030278  2.148206  0.04  -0.82859  0.025445  2.112483  0.031  -0.583669  -0.779672  0.035134  2.169699  0.048
O  O28  1  0.73330357  0.17694554  0.83212429  1  -0.850405  0.026573  1.929624  0.038  -0.797196  0.029244  2.147954  0.038  -0.823562  0.024678  2.112662  0.03  -0.581673  -0.775911  0.033791  2.169503  0.046
O  O29  1  0.80159912  0.74083854  0.06545880  1  -0.841966  0.016506  2.003598  0.03  -0.786925  0.018218  2.21944  0.029  -0.812369  0.015003  2.18581  0.024  -0.553492  -0.767402  0.021536  2.239261  0.034
O  O30  1  0.20099812  0.25784521  0.93404039  1  -0.843261  0.016344  2.001867  0.03  -0.787969  0.018075  2.219415  0.029  -0.813303  0.014864  2.185215  0.024  -0.552715  -0.768375  0.021389  2.239211  0.034
