# generated using pymatgen
data_LuH7C3O8
_symmetry_space_group_name_H-M   'P 1'
_cell_length_a   6.46452020
_cell_length_b   6.46841584
_cell_length_c   9.35540059
_cell_angle_alpha   72.31703544
_cell_angle_beta   87.42344610
_cell_angle_gamma   83.29168119
_symmetry_Int_Tables_number   1
_chemical_formula_structural   LuH7C3O8
_chemical_formula_sum   'Lu2 H14 C6 O16'
_cell_volume   370.14434358
_cell_formula_units_Z   2
loop_
 _symmetry_equiv_pos_site_id
 _symmetry_equiv_pos_as_xyz
  1  'x, y, z'
loop_
 _atom_site_type_symbol
 _atom_site_label
 _atom_site_symmetry_multiplicity
 _atom_site_fract_x
 _atom_site_fract_y
 _atom_site_fract_z
 _atom_site_occupancy
 _atom_site_hle17_bader_spin_density
 _atom_site_hle17_ddec_charge
 _atom_site_hle17_ddec_spin_density
 _atom_site_hle17_ddec_sum_bond_order
 _atom_site_hle17_magmom
 _atom_site_hse06_10hf_bader_spin_density
 _atom_site_hse06_10hf_ddec_charge
 _atom_site_hse06_10hf_ddec_spin_density
 _atom_site_hse06_10hf_ddec_sum_bond_order
 _atom_site_hse06_10hf_magmom
 _atom_site_hse06_bader_spin_density
 _atom_site_hse06_ddec_charge
 _atom_site_hse06_ddec_spin_density
 _atom_site_hse06_ddec_sum_bond_order
 _atom_site_hse06_magmom
 _atom_site_pbe_bader_spin_density
 _atom_site_pbe_cm5_charge
 _atom_site_pbe_ddec_charge
 _atom_site_pbe_ddec_spin_density
 _atom_site_pbe_ddec_sum_bond_order
 _atom_site_pbe_magmom
Lu  Lu0  1  0.25154986  0.24933862  0.24930796  1  0  1.812937  0  2.266265  0  0  1.650978  0  2.735188  0  0  1.710057  0  2.683498  0  0  1.314391  1.608707  0  2.771615  0
Lu  Lu1  1  0.74845257  0.75066407  0.75069032  1  0  1.812979  0  2.2664  0  0  1.651118  0  2.735117  0  0  1.710208  0  2.683405  0  0  1.314473  1.608858  0  2.771516  0
H  H2  1  0.73473313  0.36120748  0.28534878  1  0  0.012183  0  0.922773  0  0  0.021458  0  0.994659  0  0  0.02283  0  0.988412  0  0  0.122647  0.020423  0  0.998967  0
H  H3  1  0.26526194  0.63879192  0.71465261  1  0  0.012219  0  0.922775  0  0  0.021497  0  0.994656  0  0  0.022878  0  0.988387  0  0  0.12264  0.020453  0  0.998973  0
H  H4  1  0.20766649  0.87714071  0.07060061  1  0  0.047024  0  0.927552  0  0  0.05409  0  0.997003  0  0  0.055689  0  0.990983  0  0  0.131994  0.052404  0  1.001814  0
H  H5  1  0.79234337  0.12286534  0.92940202  1  0  0.046909  0  0.927646  0  0  0.054035  0  0.997046  0  0  0.055631  0  0.991022  0  0  0.131976  0.052349  0  1.001869  0
H  H6  1  0.20030118  0.28584529  0.65570514  1  0  0.047747  0  0.911747  0  0  0.053808  0  0.982651  0  0  0.055764  0  0.976287  0  0  0.129036  0.052763  0  0.986327  0
H  H7  1  0.79968584  0.71415737  0.34430011  1  0  0.047754  0  0.911634  0  0  0.053842  0  0.98251  0  0  0.055801  0  0.976138  0  0  0.129027  0.052802  0  0.986179  0
H  H8  1  0.40378083  0.80986359  0.42894486  1  0  0.439547  0  0.858835  0  0  0.404598  0  0.928043  0  0  0.4163  0  0.911257  0  0  0.30455  0.396162  0  0.940164  0
H  H9  1  0.59621462  0.19013257  0.57105935  1  0  0.439562  0  0.85881  0  0  0.40464  0  0.927975  0  0  0.416344  0  0.911189  0  0  0.304577  0.396211  0  0.940085  0
H  H10  1  0.15127904  0.82657946  0.43068591  1  0  0.433278  0  0.870033  0  0  0.398006  0  0.939997  0  0  0.409775  0  0.923192  0  0  0.301921  0.389563  0  0.952071  0
H  H11  1  0.84871789  0.17341664  0.56931184  1  0  0.433311  0  0.869984  0  0  0.397958  0  0.940076  0  0  0.409724  0  0.923275  0  0  0.301899  0.389512  0  0.952154  0
H  H12  1  0.39873048  0.29986248  0.94710839  1  0  0.438612  0  0.860559  0  0  0.403134  0  0.930484  0  0  0.415161  0  0.913139  0  0  0.303942  0.394727  0  0.942426  0
H  H13  1  0.60127863  0.70013531  0.05288643  1  0  0.438645  0  0.86054  0  0  0.403201  0  0.930418  0  0  0.415226  0  0.913077  0  0  0.303941  0.394791  0  0.942367  0
H  H14  1  0.14878302  0.29770498  0.94067685  1  0  0.434793  0  0.86508  0  0  0.398744  0  0.937065  0  0  0.410423  0  0.920083  0  0  0.303436  0.390759  0  0.94838  0
H  H15  1  0.85122505  0.70230261  0.05931803  1  0  0.434883  0  0.864967  0  0  0.398835  0  0.936953  0  0  0.410519  0  0.919962  0  0  0.303499  0.39085  0  0.948269  0
C  C16  1  0.75471538  0.22079622  0.23956163  1  0  0.620273  0  3.849021  0  0  0.538594  0  4.169525  0  0  0.574669  0  4.157308  0  0  0.166361  0.514002  0  4.177385  0
C  C17  1  0.24528639  0.77919829  0.76043843  1  0  0.620275  0  3.848782  0  0  0.538608  0  4.169251  0  0  0.574691  0  4.157032  0  0  0.166439  0.514014  0  4.177118  0
C  C18  1  0.22227563  0.69998164  0.12708522  1  0  0.594932  0  3.806006  0  0  0.515481  0  4.114916  0  0  0.550071  0  4.104916  0  0  0.158032  0.491785  0  4.121711  0
C  C19  1  0.77772683  0.30002107  0.87291625  1  0  0.595161  0  3.805917  0  0  0.515622  0  4.114895  0  0  0.550227  0  4.10489  0  0  0.158104  0.491928  0  4.121688  0
C  C20  1  0.21157219  0.28605663  0.53774177  1  0  0.592202  0  3.811205  0  0  0.51305  0  4.119448  0  0  0.547413  0  4.109892  0  0  0.155941  0.489307  0  4.125839  0
C  C21  1  0.78842154  0.71394116  0.46226322  1  0  0.592091  0  3.811112  0  0  0.512873  0  4.119433  0  0  0.547247  0  4.109865  0  0  0.155922  0.489148  0  4.125804  0
O  O22  1  0.59267956  0.13768129  0.22295098  1  0  -0.623719  0  2.063018  0  0  -0.557456  0  2.32055  0  0  -0.585498  0  2.310315  0  0  -0.37714  -0.537604  0  2.326976  0
O  O23  1  0.40732752  0.86232143  0.77704712  1  0  -0.623789  0  2.063052  0  0  -0.557536  0  2.320524  0  0  -0.585585  0  2.310296  0  0  -0.377153  -0.537641  0  2.326895  0
O  O24  1  0.93796457  0.15386477  0.20733772  1  0  -0.627745  0  2.06918  0  0  -0.562016  0  2.330911  0  0  -0.590574  0  2.321324  0  0  -0.376544  -0.541906  0  2.337192  0
O  O25  1  0.06202947  0.84614445  0.79266481  1  0  -0.627743  0  2.068938  0  0  -0.562076  0  2.330735  0  0  -0.590636  0  2.321131  0  0  -0.37661  -0.541974  0  2.337013  0
O  O26  1  0.40109562  0.59098706  0.14930599  1  0  -0.61664  0  2.086055  0  0  -0.549261  0  2.323717  0  0  -0.577544  0  2.315618  0  0  -0.333633  -0.529421  0  2.328711  0
O  O27  1  0.59890555  0.40901229  0.85068557  1  0  -0.616683  0  2.086051  0  0  -0.549309  0  2.323764  0  0  -0.577604  0  2.315665  0  0  -0.333659  -0.529467  0  2.328751  0
O  O28  1  0.05931698  0.60113203  0.16828572  1  0  -0.633585  0  2.074774  0  0  -0.567402  0  2.31983  0  0  -0.595514  0  2.310505  0  0  -0.347635  -0.547417  0  2.32514  0
O  O29  1  0.94068187  0.39887558  0.83171591  1  0  -0.633694  0  2.074774  0  0  -0.567458  0  2.319819  0  0  -0.595582  0  2.310498  0  0  -0.347674  -0.547485  0  2.325134  0
O  O30  1  0.05007967  0.26917518  0.47075524  1  0  -0.622177  0  2.105063  0  0  -0.554083  0  2.34662  0  0  -0.583136  0  2.339802  0  0  -0.334188  -0.534493  0  2.351557  0
O  O31  1  0.94991299  0.73081766  0.52924551  1  0  -0.622096  0  2.105178  0  0  -0.554037  0  2.346768  0  0  -0.583112  0  2.339957  0  0  -0.334178  -0.534465  0  2.351704  0
O  O32  1  0.38606476  0.29992578  0.46823953  1  0  -0.616534  0  2.076451  0  0  -0.549463  0  2.314804  0  0  -0.577119  0  2.306293  0  0  -0.341814  -0.530649  0  2.320793  0
O  O33  1  0.61392969  0.70006549  0.53176790  1  0  -0.616532  0  2.076352  0  0  -0.549384  0  2.314663  0  0  -0.57703  0  2.306147  0  0  -0.34184  -0.530592  0  2.320691  0
O  O34  1  0.27532578  0.89466416  0.37575149  1  0  -0.868748  0  1.918653  0  0  -0.808135  0  2.12824  0  0  -0.831905  0  2.095452  0  0  -0.642186  -0.791274  0  2.151453  0
O  O35  1  0.72467441  0.10533032  0.62424542  1  0  -0.868769  0  1.918567  0  0  -0.808127  0  2.12821  0  0  -0.8319  0  2.095429  0  0  -0.642223  -0.791272  0  2.151414  0
O  O36  1  0.27146358  0.25421111  0.00910196  1  0  -0.86437  0  1.91168  0  0  -0.804132  0  2.118544  0  0  -0.826869  0  2.084273  0  0  -0.639104  -0.787842  0  2.141639  0
O  O37  1  0.72854691  0.74578833  0.99089352  1  0  -0.864495  0  1.911626  0  0  -0.804294  0  2.118421  0  0  -0.827039  0  2.084138  0  0  -0.639165  -0.788016  0  2.14152  0
