# generated using pymatgen
data_SrH2(CO2)2
_symmetry_space_group_name_H-M   'P 1'
_cell_length_a   7.20938349
_cell_length_b   7.20932714
_cell_length_c   9.31179706
_cell_angle_alpha   90.00021097
_cell_angle_beta   89.99918442
_cell_angle_gamma   90.04487256
_symmetry_Int_Tables_number   1
_chemical_formula_structural   SrH2(CO2)2
_chemical_formula_sum   'Sr4 H8 C8 O16'
_cell_volume   483.97867947
_cell_formula_units_Z   4
loop_
 _symmetry_equiv_pos_site_id
 _symmetry_equiv_pos_as_xyz
  1  'x, y, z'
loop_
 _atom_site_type_symbol
 _atom_site_label
 _atom_site_symmetry_multiplicity
 _atom_site_fract_x
 _atom_site_fract_y
 _atom_site_fract_z
 _atom_site_occupancy
 _atom_site_pbe_bader_spin_density
 _atom_site_pbe_cm5_charge
 _atom_site_pbe_ddec_charge
 _atom_site_pbe_ddec_spin_density
 _atom_site_pbe_ddec_sum_bond_order
 _atom_site_pbe_magmom
Sr  Sr0  1  0.28729747  0.28730700  0.50000865  1  0  1.005264  1.44702  0  1.5673  0
Sr  Sr1  1  0.21226969  0.78773553  0.74999156  1  0  1.005294  1.447508  0  1.565662  0
Sr  Sr2  1  0.71269967  0.71268791  0.99999634  1  0  1.005272  1.447123  0  1.567142  0
Sr  Sr3  1  0.78773211  0.21226231  0.25000146  1  0  1.005305  1.447453  0  1.565705  0
H  H4  1  0.31102796  0.11135566  0.06951136  1  0  0.124457  0.017354  0  0.998994  0
H  H5  1  0.38845475  0.81133685  0.31901905  1  0  0.124584  0.017804  0  1.000531  0
H  H6  1  0.68897304  0.88865376  0.56949549  1  0  0.124462  0.017257  0  0.998995  0
H  H7  1  0.61156518  0.18864607  0.81901607  1  0  0.124592  0.017803  0  1.000463  0
H  H8  1  0.11134733  0.31101948  0.93050549  1  0  0.124457  0.017333  0  0.998954  0
H  H9  1  0.81132337  0.38843886  0.68098175  1  0  0.124555  0.017885  0  1.00035  0
H  H10  1  0.88863030  0.68897647  0.43050162  1  0  0.124444  0.017284  0  0.99895  0
H  H11  1  0.18865754  0.61158775  0.18098206  1  0  0.124537  0.017833  0  1.000322  0
C  C12  1  0.29427879  0.18073864  0.17508623  1  0  0.167288  0.520264  0  4.249054  0
C  C13  1  0.31897081  0.79389219  0.42447273  1  0  0.167527  0.521119  0  4.249774  0
C  C14  1  0.70573134  0.81925882  0.67505602  1  0  0.167447  0.520655  0  4.248451  0
C  C15  1  0.68104993  0.20609542  0.92447334  1  0  0.167546  0.521104  0  4.249928  0
C  C16  1  0.18072772  0.29428199  0.82495189  1  0  0.167618  0.520787  0  4.248804  0
C  C17  1  0.79387817  0.31894955  0.57551231  1  0  0.167506  0.52097  0  4.249732  0
C  C18  1  0.81925604  0.70572731  0.32495097  1  0  0.167507  0.520834  0  4.247903  0
C  C19  1  0.20610469  0.68106267  0.07551155  1  0  0.167579  0.521152  0  4.249799  0
O  O20  1  0.43962016  0.21841506  0.24630375  1  0  -0.406386  -0.63402  0  2.311732  0
O  O21  1  0.28087665  0.93890625  0.49601679  1  0  -0.406788  -0.635354  0  2.310028  0
O  O22  1  0.56038726  0.78157444  0.74629113  1  0  -0.406515  -0.634313  0  2.311196  0
O  O23  1  0.71915386  0.06109420  0.99601015  1  0  -0.406831  -0.635332  0  2.310294  0
O  O24  1  0.21840849  0.43961388  0.75372718  1  0  -0.40658  -0.634375  0  2.311809  0
O  O25  1  0.93889854  0.28088610  0.50396460  1  0  -0.406842  -0.635424  0  2.310122  0
O  O26  1  0.78157105  0.56038118  0.25371016  1  0  -0.406528  -0.634406  0  2.310949  0
O  O27  1  0.06110508  0.71913271  0.00396766  1  0  -0.406887  -0.635479  0  2.310509  0
O  O28  1  0.13188607  0.21674372  0.21873931  1  0  -0.388253  -0.627075  0  2.270349  0
O  O29  1  0.28326151  0.63125286  0.46769744  1  0  -0.387717  -0.627326  0  2.270101  0
O  O30  1  0.86811908  0.78324287  0.71869758  1  0  -0.388275  -0.627137  0  2.270483  0
O  O31  1  0.71675566  0.36874328  0.96769059  1  0  -0.387736  -0.627359  0  2.269909  0
O  O32  1  0.21674946  0.13189247  0.78128643  1  0  -0.388362  -0.627252  0  2.270279  0
O  O33  1  0.63123486  0.28324165  0.53229700  1  0  -0.387629  -0.627176  0  2.270156  0
O  O34  1  0.78323650  0.86810829  0.28129064  1  0  -0.388276  -0.627208  0  2.270245  0
O  O35  1  0.36875851  0.71675926  0.03229349  1  0  -0.387638  -0.627307  0  2.269898  0
