# generated using pymatgen
data_HgH4C4(NCl)2
_symmetry_space_group_name_H-M   'P 1'
_cell_length_a   7.20549195
_cell_length_b   7.33193359
_cell_length_c   8.30850812
_cell_angle_alpha   116.18301525
_cell_angle_beta   115.70667542
_cell_angle_gamma   89.98508120
_symmetry_Int_Tables_number   1
_chemical_formula_structural   HgH4C4(NCl)2
_chemical_formula_sum   'Hg2 H8 C8 N4 Cl4'
_cell_volume   344.85599088
_cell_formula_units_Z   2
loop_
 _symmetry_equiv_pos_site_id
 _symmetry_equiv_pos_as_xyz
  1  'x, y, z'
loop_
 _atom_site_type_symbol
 _atom_site_label
 _atom_site_symmetry_multiplicity
 _atom_site_fract_x
 _atom_site_fract_y
 _atom_site_fract_z
 _atom_site_occupancy
 _atom_site_pbe_bader_spin_density
 _atom_site_pbe_cm5_charge
 _atom_site_pbe_ddec_charge
 _atom_site_pbe_ddec_spin_density
 _atom_site_pbe_ddec_sum_bond_order
 _atom_site_pbe_magmom
Hg  Hg0  1  0.49999858  0.00000674  0.00000095  1  0  0.494268  0.528971  0  2.600149  0
Hg  Hg1  1  0.99999741  0.00000108  0.99999773  1  0  0.494268  0.528339  0  2.601898  0
H  H2  1  0.34018326  0.75375095  0.50764774  1  0  0.11276  0.098822  0  1.020694  0
H  H3  1  0.33268413  0.24606589  0.49222797  1  0  0.112674  0.098949  0  1.021446  0
H  H4  1  0.66731422  0.75392854  0.50776423  1  0  0.112675  0.098939  0  1.021473  0
H  H5  1  0.65982277  0.24625596  0.49235704  1  0  0.112788  0.098853  0  1.020703  0
H  H6  1  0.00746780  0.58097367  0.16211186  1  0  0.100959  0.120667  0  1.025187  0
H  H7  1  0.34563692  0.41880858  0.83772792  1  0  0.101111  0.121165  0  1.025005  0
H  H8  1  0.65436990  0.58118894  0.16227105  1  0  0.101107  0.121143  0  1.025032  0
H  H9  1  0.99253752  0.41902382  0.83789256  1  0  0.100985  0.120651  0  1.025188  0
C  C10  1  0.18215346  0.74632735  0.49263109  1  0  0.057656  0.06492  0  3.901297  0
C  C11  1  0.18971788  0.25337436  0.50721458  1  0  0.057739  0.065009  0  3.902884  0
C  C12  1  0.81028205  0.74662003  0.49278301  1  0  0.057716  0.065004  0  3.90293  0
C  C13  1  0.81784536  0.25366233  0.50736904  1  0  0.057595  0.064845  0  3.901198  0
C  C14  1  0.99732852  0.65145322  0.30289883  1  0  -0.057348  -0.052734  0  3.892762  0
C  C15  1  0.19471873  0.34845768  0.69696326  1  0  -0.057614  -0.054661  0  3.894849  0
C  C16  1  0.80528466  0.65153827  0.30303743  1  0  -0.057607  -0.054619  0  3.894902  0
C  C17  1  0.00267367  0.34855056  0.69710329  1  0  -0.057355  -0.052695  0  3.892688  0
N  N18  1  0.17588185  0.83429176  0.66858090  1  0  -0.180297  -0.072061  0  3.483876  0
N  N19  1  0.00750797  0.16569738  0.33131868  1  0  -0.179921  -0.071392  0  3.483958  0
N  N20  1  0.99248811  0.83430014  0.66868111  1  0  -0.17989  -0.071355  0  3.484023  0
N  N21  1  0.82411379  0.16571048  0.33141578  1  0  -0.180262  -0.072001  0  3.483782  0
Cl  Cl22  1  0.32370562  0.83023191  0.14734067  1  0  -0.281009  -0.423639  0  1.277294  0
Cl  Cl23  1  0.67638364  0.68290215  0.85273062  1  0  -0.281003  -0.423728  0  1.277009  0
Cl  Cl24  1  0.32361278  0.31710320  0.14727118  1  0  -0.280996  -0.423743  0  1.277053  0
Cl  Cl25  1  0.67629117  0.16977501  0.85266068  1  0  -0.281  -0.423648  0  1.277352  0
