# generated using pymatgen
data_ZnH4C5NO3
_symmetry_space_group_name_H-M   'P 1'
_cell_length_a   4.99572382
_cell_length_b   5.00736532
_cell_length_c   12.04666110
_cell_angle_alpha   95.47394564
_cell_angle_beta   97.10722076
_cell_angle_gamma   105.86283951
_symmetry_Int_Tables_number   1
_chemical_formula_structural   ZnH4C5NO3
_chemical_formula_sum   'Zn2 H8 C10 N2 O6'
_cell_volume   285.00137806
_cell_formula_units_Z   2
loop_
 _symmetry_equiv_pos_site_id
 _symmetry_equiv_pos_as_xyz
  1  'x, y, z'
loop_
 _atom_site_type_symbol
 _atom_site_label
 _atom_site_symmetry_multiplicity
 _atom_site_fract_x
 _atom_site_fract_y
 _atom_site_fract_z
 _atom_site_occupancy
 _atom_site_hle17_bader_spin_density
 _atom_site_hle17_ddec_charge
 _atom_site_hle17_ddec_spin_density
 _atom_site_hle17_ddec_sum_bond_order
 _atom_site_hle17_magmom
 _atom_site_hse06_10hf_bader_spin_density
 _atom_site_hse06_10hf_ddec_charge
 _atom_site_hse06_10hf_ddec_spin_density
 _atom_site_hse06_10hf_ddec_sum_bond_order
 _atom_site_hse06_10hf_magmom
 _atom_site_hse06_bader_spin_density
 _atom_site_hse06_ddec_charge
 _atom_site_hse06_ddec_spin_density
 _atom_site_hse06_ddec_sum_bond_order
 _atom_site_hse06_magmom
 _atom_site_pbe_bader_spin_density
 _atom_site_pbe_cm5_charge
 _atom_site_pbe_ddec_charge
 _atom_site_pbe_ddec_spin_density
 _atom_site_pbe_ddec_sum_bond_order
 _atom_site_pbe_magmom
Zn  Zn0  1  0.67918333  0.90367118  0.46009846  1  0  0.968336  0  1.930896  0  0  0.787143  0  2.396418  0  0  0.831099  0  2.344102  0  0  0.628458  0.749336  0  2.437794  0
Zn  Zn1  1  0.19757764  0.41928209  0.51289563  1  0  0.987985  0  1.808643  0  0  0.797762  0  2.26819  0  0  0.851526  0  2.215381  0  0  0.64136  0.762582  0  2.30959  0
H  H2  1  0.82130619  0.53317405  0.27994889  1  0  0.092746  0  0.944992  0  0  0.097149  0  1.013359  0  0  0.103243  0  1.008166  0  0  0.117273  0.093317  0  1.016964  0
H  H3  1  0.50676889  0.21850422  0.69575393  1  0  0.088662  0  1.025708  0  0  0.082055  0  1.114073  0  0  0.084865  0  1.111356  0  0  0.119393  0.082994  0  1.104011  0
H  H4  1  0.71958422  0.40418749  0.07148348  1  0  0.103726  0  0.95636  0  0  0.117459  0  1.010345  0  0  0.118752  0  1.011869  0  0  0.106252  0.115391  0  1.010664  0
H  H5  1  0.61787657  0.29836883  0.90317642  1  0  0.095069  0  0.972954  0  0  0.101892  0  1.041011  0  0  0.105409  0  1.040046  0  0  0.100268  0.100441  0  1.039898  0
H  H6  1  0.16302315  0.93260844  0.06399876  1  0  0.104344  0  0.956224  0  0  0.117456  0  1.010899  0  0  0.11843  0  1.012782  0  0  0.106168  0.115587  0  1.011037  0
H  H7  1  0.09368537  0.86381608  0.89472901  1  0  0.094809  0  0.98182  0  0  0.101834  0  1.048817  0  0  0.10538  0  1.046657  0  0  0.099704  0.099536  0  1.050238  0
H  H8  1  0.29207930  0.03822869  0.27296884  1  0  0.093181  0  0.941719  0  0  0.09907  0  1.008236  0  0  0.104927  0  1.003324  0  0  0.117538  0.095388  0  1.011575  0
H  H9  1  0.01735014  0.75481892  0.68775162  1  0  0.088  0  1.01535  0  0  0.081352  0  1.104107  0  0  0.085595  0  1.099704  0  0  0.118892  0.082034  0  1.094375  0
C  C10  1  0.67939734  0.61823863  0.22743483  1  0  0.133287  0  3.698414  0  0  0.101781  0  3.952197  0  0  0.110905  0  3.961684  0  0  0.046233  0.096284  0  3.944145  0
C  C11  1  0.42225462  0.35839198  0.74507574  1  0  0.148  0  3.669925  0  0  0.105296  0  3.939983  0  0  0.109054  0  3.963503  0  0  0.044192  0.099811  0  3.929301  0
C  C12  1  0.61791664  0.54615452  0.11103040  1  0  -0.172663  0  3.729566  0  0  -0.189959  0  3.977716  0  0  -0.198695  0  4.002583  0  0  -0.089479  -0.185245  0  3.96419  0
C  C13  1  0.48075985  0.40712233  0.86206884  1  0  -0.147143  0  3.697837  0  0  -0.171069  0  3.960655  0  0  -0.185395  0  3.989147  0  0  -0.08505  -0.16296  0  3.944064  0
C  C14  1  0.43088011  0.65785046  0.04640883  1  0  0.098413  0  3.752969  0  0  0.109219  0  3.982662  0  0  0.10865  0  4.008257  0  0  0.008539  0.10602  0  3.970002  0
C  C15  1  0.36648549  0.59219764  0.92211208  1  0  0.072711  0  3.75892  0  0  0.085204  0  3.991326  0  0  0.094984  0  4.011761  0  0  -0.001173  0.078851  0  3.979727  0
C  C16  1  0.31177121  0.83871212  0.10696042  1  0  -0.170259  0  3.729188  0  0  -0.18727  0  3.977942  0  0  -0.195853  0  4.003033  0  0  -0.087315  -0.182709  0  3.964165  0
C  C17  1  0.19257913  0.71662715  0.85745649  1  0  -0.145404  0  3.699546  0  0  -0.169853  0  3.962265  0  0  -0.183318  0  3.989572  0  0  -0.083628  -0.161623  0  3.945932  0
C  C18  1  0.38296674  0.90134662  0.22351697  1  0  0.131527  0  3.701911  0  0  0.099344  0  3.955629  0  0  0.108271  0  3.965495  0  0  0.045595  0.094111  0  3.947212  0
C  C19  1  0.14579042  0.65922491  0.74052116  1  0  0.152303  0  3.664952  0  0  0.110126  0  3.933878  0  0  0.113455  0  3.956972  0  0  0.045361  0.103269  0  3.924667  0
N  N20  1  0.56554635  0.79460311  0.28332386  1  0  -0.305561  0  3.260805  0  0  -0.225156  0  3.526832  0  0  -0.231289  0  3.52514  0  0  -0.325648  -0.217552  0  3.522858  0
N  N21  1  0.25826767  0.48249439  0.68524861  1  0  -0.293988  0  3.308489  0  0  -0.207495  0  3.573905  0  0  -0.225689  0  3.587625  0  0  -0.330952  -0.200285  0  3.580843  0
O  O22  1  0.75941439  0.97722497  0.76517901  1  0  -0.18134  0  1.719439  0  0  -0.140603  0  1.939653  0  0  -0.110841  0  1.912197  0  0  -0.110059  -0.142074  0  1.943576  0
O  O23  1  0.77277557  0.33597036  0.44797329  1  0  -0.470727  0  1.836999  0  0  -0.39737  0  2.135608  0  0  -0.437081  0  2.13845  0  0  -0.284793  -0.375747  0  2.137456  0
O  O24  1  0.11085370  0.99989773  0.44784200  1  0  -0.468171  0  1.837496  0  0  -0.394644  0  2.137994  0  0  -0.431525  0  2.137028  0  0  -0.284691  -0.374757  0  2.14272  0
O  O25  1  0.63723857  0.51167547  0.51002292  1  0  -0.454415  0  1.838812  0  0  -0.389058  0  2.143008  0  0  -0.43647  0  2.148646  0  0  -0.278036  -0.363873  0  2.145676  0
O  O26  1  0.28939031  0.85865305  0.50868954  1  0  -0.453513  0  1.84766  0  0  -0.386236  0  2.152033  0  0  -0.429754  0  2.154752  0  0  -0.278915  -0.365835  0  2.160116  0
O  O27  1  0.80296770  0.04125848  0.66633119  1  0  -0.189914  0  1.854852  0  0  -0.135431  0  2.099827  0  0  -0.088636  0  2.058973  0  0  -0.105488  -0.142294  0  2.107779  0
