# generated using pymatgen
data_KHC3(NO)4
_symmetry_space_group_name_H-M   'P 1'
_cell_length_a   6.98153582
_cell_length_b   6.78218675
_cell_length_c   8.07343077
_cell_angle_alpha   99.23825546
_cell_angle_beta   97.62921604
_cell_angle_gamma   115.51942874
_symmetry_Int_Tables_number   1
_chemical_formula_structural   KHC3(NO)4
_chemical_formula_sum   'K2 H2 C6 N8 O8'
_cell_volume   331.64276094
_cell_formula_units_Z   2
loop_
 _symmetry_equiv_pos_site_id
 _symmetry_equiv_pos_as_xyz
  1  'x, y, z'
loop_
 _atom_site_type_symbol
 _atom_site_label
 _atom_site_symmetry_multiplicity
 _atom_site_fract_x
 _atom_site_fract_y
 _atom_site_fract_z
 _atom_site_occupancy
 _atom_site_hle17_bader_spin_density
 _atom_site_hle17_ddec_charge
 _atom_site_hle17_ddec_spin_density
 _atom_site_hle17_ddec_sum_bond_order
 _atom_site_hle17_magmom
 _atom_site_hse06_10hf_bader_spin_density
 _atom_site_hse06_10hf_ddec_charge
 _atom_site_hse06_10hf_ddec_spin_density
 _atom_site_hse06_10hf_ddec_sum_bond_order
 _atom_site_hse06_10hf_magmom
 _atom_site_hse06_bader_spin_density
 _atom_site_hse06_ddec_charge
 _atom_site_hse06_ddec_spin_density
 _atom_site_hse06_ddec_sum_bond_order
 _atom_site_hse06_magmom
 _atom_site_pbe_bader_spin_density
 _atom_site_pbe_cm5_charge
 _atom_site_pbe_ddec_charge
 _atom_site_pbe_ddec_spin_density
 _atom_site_pbe_ddec_sum_bond_order
 _atom_site_pbe_magmom
K  K0  1  0.98215308  0.20015566  0.32420561  1  0  0.908523  0  0.439922  0  0  0.84118  0  0.63837  0  0  0.857407  0  0.615006  0  0  0.766508  0.828929  0  0.655322  0
K  K1  1  0.01780650  0.79988423  0.67579112  1  0  0.908525  0  0.439928  0  0  0.841175  0  0.638386  0  0  0.857406  0  0.615019  0  0  0.766508  0.828924  0  0.655341  0
H  H2  1  0.48469699  0.78387621  0.87032855  1  0  0.127148  0  0.927232  0  0  0.12816  0  0.995881  0  0  0.132384  0  0.991558  0  0  0.133667  0.12505  0  0.999086  0
H  H3  1  0.51531190  0.21611608  0.12966618  1  0  0.127122  0  0.927269  0  0  0.128158  0  0.995903  0  0  0.13239  0  0.991571  0  0  0.133702  0.125048  0  0.999106  0
C  C4  1  0.43475003  0.69278015  0.23829897  1  0  0.339114  0  3.776923  0  0  0.292061  0  4.072307  0  0  0.297179  0  4.091564  0  0  0.290766  0.289386  0  4.058697  0
C  C5  1  0.56524893  0.30721895  0.76169802  1  0  0.339144  0  3.776901  0  0  0.292096  0  4.072256  0  0  0.297201  0  4.091528  0  0  0.2908  0.289422  0  4.058645  0
C  C6  1  0.25714856  0.52067219  0.98897922  1  0  0.140095  0  3.763994  0  0  0.11478  0  4.048717  0  0  0.109559  0  4.073462  0  0  0.179589  0.117746  0  4.032483  0
C  C7  1  0.74285609  0.47932350  0.01101796  1  0  0.140009  0  3.764033  0  0  0.114691  0  4.048776  0  0  0.109482  0  4.073506  0  0  0.179643  0.117666  0  4.03253  0
C  C8  1  0.43736263  0.72151896  0.98179166  1  0  0.04712  0  3.629042  0  0  0.00463  0  3.913089  0  0  0.010006  0  3.928124  0  0  0.044657  0.001267  0  3.902985  0
C  C9  1  0.56264574  0.27848177  0.01820788  1  0  0.047139  0  3.629093  0  0  0.004609  0  3.913187  0  0  0.009979  0  3.928208  0  0  0.044557  0.001245  0  3.903077  0
N  N10  1  0.25643472  0.50321772  0.15313975  1  0  -0.466341  0  3.069687  0  0  -0.442531  0  3.353469  0  0  -0.45132  0  3.369942  0  0  -0.401964  -0.436322  0  3.342238  0
N  N11  1  0.74356416  0.49677800  0.84685924  1  0  -0.466371  0  3.069687  0  0  -0.442568  0  3.353494  0  0  -0.451359  0  3.369968  0  0  -0.402016  -0.436362  0  3.342259  0
N  N12  1  0.55210758  0.83055882  0.14401504  1  0  -0.423109  0  3.007659  0  0  -0.393928  0  3.293341  0  0  -0.406753  0  3.309034  0  0  -0.385116  -0.385248  0  3.282493  0
N  N13  1  0.44789502  0.16944195  0.85598507  1  0  -0.423095  0  3.007679  0  0  -0.393917  0  3.293372  0  0  -0.406741  0  3.309073  0  0  -0.385065  -0.385235  0  3.282521  0
N  N14  1  0.50094943  0.74537885  0.42154106  1  0  0.442691  0  3.953868  0  0  0.496243  0  4.224133  0  0  0.51386  0  4.233189  0  0  0.049955  0.482509  0  4.218447  0
N  N15  1  0.49904953  0.25462025  0.57845716  1  0  0.44267  0  3.953881  0  0  0.496287  0  4.224042  0  0  0.513923  0  4.23309  0  0  0.049939  0.482551  0  4.218361  0
N  N16  1  0.09760885  0.34665851  0.84915637  1  0  0.493262  0  3.94966  0  0  0.523045  0  4.248812  0  0  0.545431  0  4.257204  0  0  0.036502  0.508072  0  4.243165  0
N  N17  1  0.90239935  0.65333546  0.15084594  1  0  0.493285  0  3.949983  0  0  0.523076  0  4.249126  0  0  0.545459  0  4.257517  0  0  0.036478  0.508102  0  4.243482  0
O  O18  1  0.09626012  0.38488725  0.70208592  1  0  -0.431965  0  1.778629  0  0  -0.416059  0  2.011374  0  0  -0.430611  0  2.00783  0  0  -0.187336  -0.406172  0  2.013946  0
O  O19  1  0.90374481  0.61508986  0.29790877  1  0  -0.431931  0  1.778856  0  0  -0.416029  0  2.011611  0  0  -0.430582  0  2.008069  0  0  -0.187333  -0.406145  0  2.014184  0
O  O20  1  0.96982779  0.16593958  0.87763556  1  0  -0.384556  0  1.74979  0  0  -0.365141  0  1.965632  0  0  -0.376375  0  1.960918  0  0  -0.158747  -0.357458  0  1.968902  0
O  O21  1  0.03018047  0.83405775  0.12237588  1  0  -0.384548  0  1.749874  0  0  -0.365159  0  1.965735  0  0  -0.376396  0  1.961028  0  0  -0.158699  -0.357455  0  1.968958  0
O  O22  1  0.68707627  0.90296513  0.49266152  1  0  -0.418582  0  1.810311  0  0  -0.414957  0  2.037407  0  0  -0.424459  0  2.031298  0  0  -0.210592  -0.407345  0  2.041621  0
O  O23  1  0.31292626  0.09703226  0.50733565  1  0  -0.418522  0  1.810276  0  0  -0.414912  0  2.037322  0  0  -0.424423  0  2.031214  0  0  -0.210522  -0.407303  0  2.041536  0
O  O24  1  0.37225597  0.63171483  0.50279396  1  0  -0.373396  0  1.795676  0  0  -0.367465  0  2.013862  0  0  -0.376288  0  2.00924  0  0  -0.157917  -0.360408  0  2.01708  0
O  O25  1  0.62774451  0.36828764  0.49720613  1  0  -0.373431  0  1.795648  0  0  -0.367526  0  2.013808  0  0  -0.37636  0  2.009187  0  0  -0.157964  -0.360466  0  2.017028  0
