# generated using pymatgen
data_NaH3(CO)4
_symmetry_space_group_name_H-M   'P 1'
_cell_length_a   5.39390289
_cell_length_b   6.46120559
_cell_length_c   7.95707169
_cell_angle_alpha   82.40244341
_cell_angle_beta   88.09639727
_cell_angle_gamma   67.22016724
_symmetry_Int_Tables_number   1
_chemical_formula_structural   NaH3(CO)4
_chemical_formula_sum   'Na2 H6 C8 O8'
_cell_volume   253.38867458
_cell_formula_units_Z   2
loop_
 _symmetry_equiv_pos_site_id
 _symmetry_equiv_pos_as_xyz
  1  'x, y, z'
loop_
 _atom_site_type_symbol
 _atom_site_label
 _atom_site_symmetry_multiplicity
 _atom_site_fract_x
 _atom_site_fract_y
 _atom_site_fract_z
 _atom_site_occupancy
 _atom_site_hle17_bader_spin_density
 _atom_site_hle17_ddec_charge
 _atom_site_hle17_ddec_spin_density
 _atom_site_hle17_ddec_sum_bond_order
 _atom_site_hle17_magmom
 _atom_site_hse06_10hf_bader_spin_density
 _atom_site_hse06_10hf_ddec_charge
 _atom_site_hse06_10hf_ddec_spin_density
 _atom_site_hse06_10hf_ddec_sum_bond_order
 _atom_site_hse06_10hf_magmom
 _atom_site_hse06_bader_spin_density
 _atom_site_hse06_ddec_charge
 _atom_site_hse06_ddec_spin_density
 _atom_site_hse06_ddec_sum_bond_order
 _atom_site_hse06_magmom
 _atom_site_pbe_bader_spin_density
 _atom_site_pbe_cm5_charge
 _atom_site_pbe_ddec_charge
 _atom_site_pbe_ddec_spin_density
 _atom_site_pbe_ddec_sum_bond_order
 _atom_site_pbe_magmom
Na  Na0  1  0.52926461  0.76141205  0.39775005  1  0  0.906745  0  0.369963  0  0  0.85874  0  0.526641  0  0  0.870423  0  0.504  0  0  0.678248  0.85016  0  0.542773  0
Na  Na1  1  0.47072660  0.23859348  0.60230269  1  0  0.906684  0  0.369949  0  0  0.858657  0  0.526631  0  0  0.870377  0  0.503938  0  0  0.67808  0.85007  0  0.542763  0
H  H2  1  0.75809536  0.79215010  0.96224491  1  0  0.137321  0  0.924454  0  0  0.144358  0  0.983083  0  0  0.149195  0  0.980292  0  0  0.121898  0.140882  0  0.985297  0
H  H3  1  0.24192299  0.20782935  0.03773941  1  0  0.137254  0  0.924422  0  0  0.144291  0  0.983035  0  0  0.149122  0  0.980239  0  0  0.121825  0.140807  0  0.985242  0
H  H4  1  0.33421738  0.69309432  0.83222165  1  0  0.131737  0  0.939266  0  0  0.13751  0  1.003231  0  0  0.142206  0  0.999716  0  0  0.1205  0.134167  0  1.005856  0
H  H5  1  0.66577466  0.30691835  0.16787923  1  0  0.131721  0  0.939581  0  0  0.137582  0  1.003347  0  0  0.142277  0  0.999832  0  0  0.120514  0.134244  0  1.005982  0
H  H6  1  0.04457850  0.70952821  0.38074096  1  0  0.383676  0  0.925081  0  0  0.349542  0  1.009025  0  0  0.363898  0  0.994466  0  0  0.295778  0.339479  0  1.019117  0
H  H7  1  0.95535759  0.29064139  0.61929681  1  0  0.383241  0  0.925562  0  0  0.349332  0  1.009111  0  0  0.363691  0  0.994549  0  0  0.295764  0.339267  0  1.019207  0
C  C8  1  0.00257539  0.75271463  0.65318036  1  0  0.716337  0  3.868045  0  0  0.673602  0  4.162172  0  0  0.707412  0  4.151413  0  0  0.219861  0.650662  0  4.168875  0
C  C9  1  0.99743403  0.24730868  0.34679150  1  0  0.716197  0  3.868773  0  0  0.67347  0  4.162834  0  0  0.70724  0  4.152133  0  0  0.219696  0.650545  0  4.169532  0
C  C10  1  0.11838501  0.73531602  0.82393639  1  0  -0.140813  0  3.613818  0  0  -0.166102  0  3.872207  0  0  -0.169471  0  3.884124  0  0  -0.064386  -0.163907  0  3.864342  0
C  C11  1  0.88157086  0.26476328  0.17601841  1  0  -0.140615  0  3.613708  0  0  -0.16587  0  3.871877  0  0  -0.169189  0  3.883737  0  0  -0.064267  -0.163674  0  3.86395  0
C  C12  1  0.97284262  0.75674720  0.96526035  1  0  -0.176459  0  3.653904  0  0  -0.192067  0  3.90438  0  0  -0.200478  0  3.921547  0  0  -0.072492  -0.186546  0  3.893014  0
C  C13  1  0.02719325  0.24321866  0.03473115  1  0  -0.176378  0  3.653611  0  0  -0.191992  0  3.903985  0  0  -0.200383  0  3.921153  0  0  -0.07246  -0.186448  0  3.892589  0
C  C14  1  0.10152015  0.73088682  0.13241819  1  0  0.698719  0  3.831997  0  0  0.659032  0  4.116402  0  0  0.691312  0  4.110363  0  0  0.230752  0.637107  0  4.120014  0
C  C15  1  0.89854331  0.26902806  0.86755818  1  0  0.698651  0  3.831642  0  0  0.658973  0  4.116024  0  0  0.691209  0  4.110057  0  0  0.230878  0.63708  0  4.119583  0
O  O16  1  0.17797812  0.66858033  0.53890294  1  0  -0.717766  0  1.992986  0  0  -0.665065  0  2.233475  0  0  -0.689118  0  2.218716  0  0  -0.395773  -0.648256  0  2.243123  0
O  O17  1  0.82199302  0.33138209  0.46101883  1  0  -0.717693  0  1.993291  0  0  -0.665199  0  2.233745  0  0  -0.68924  0  2.218999  0  0  -0.395875  -0.648397  0  2.24339  0
O  O18  1  0.33940940  0.70507731  0.15122789  1  0  -0.614376  0  1.918584  0  0  -0.573863  0  2.144697  0  0  -0.594514  0  2.135721  0  0  -0.34334  -0.559628  0  2.150564  0
O  O19  1  0.66057893  0.29496038  0.84883114  1  0  -0.614399  0  1.918238  0  0  -0.57387  0  2.144342  0  0  -0.594535  0  2.135426  0  0  -0.343424  -0.55962  0  2.150145  0
O  O20  1  0.93651591  0.73983269  0.26166405  1  0  -0.620996  0  2.116974  0  0  -0.565726  0  2.345249  0  0  -0.59  0  2.331359  0  0  -0.377787  -0.548717  0  2.354342  0
O  O21  1  0.06354548  0.26005204  0.73833994  1  0  -0.620559  0  2.117405  0  0  -0.565483  0  2.345551  0  0  -0.58973  0  2.331676  0  0  -0.377791  -0.548495  0  2.354634  0
O  O22  1  0.75233925  0.84124876  0.62485830  1  0  -0.704176  0  1.87808  0  0  -0.659967  0  2.111032  0  0  -0.680899  0  2.097687  0  0  -0.413201  -0.645433  0  2.11985  0
O  O23  1  0.24763038  0.15871374  0.37507233  1  0  -0.704053  0  1.878662  0  0  -0.659884  0  2.111609  0  0  -0.680808  0  2.098283  0  0  -0.412998  -0.64535  0  2.120416  0
