# generated using pymatgen
data_BaPH2CO5
_symmetry_space_group_name_H-M   'P 1'
_cell_length_a   7.40230564
_cell_length_b   7.40154669
_cell_length_c   11.02577926
_cell_angle_alpha   93.89491033
_cell_angle_beta   108.69066296
_cell_angle_gamma   114.93887154
_symmetry_Int_Tables_number   1
_chemical_formula_structural   BaPH2CO5
_chemical_formula_sum   'Ba4 P4 H8 C4 O20'
_cell_volume   504.16610759
_cell_formula_units_Z   4
loop_
 _symmetry_equiv_pos_site_id
 _symmetry_equiv_pos_as_xyz
  1  'x, y, z'
loop_
 _atom_site_type_symbol
 _atom_site_label
 _atom_site_symmetry_multiplicity
 _atom_site_fract_x
 _atom_site_fract_y
 _atom_site_fract_z
 _atom_site_occupancy
 _atom_site_hle17_bader_spin_density
 _atom_site_hle17_ddec_charge
 _atom_site_hle17_ddec_spin_density
 _atom_site_hle17_ddec_sum_bond_order
 _atom_site_hle17_magmom
 _atom_site_hse06_10hf_bader_spin_density
 _atom_site_hse06_10hf_ddec_charge
 _atom_site_hse06_10hf_ddec_spin_density
 _atom_site_hse06_10hf_ddec_sum_bond_order
 _atom_site_hse06_10hf_magmom
 _atom_site_hse06_bader_spin_density
 _atom_site_hse06_ddec_charge
 _atom_site_hse06_ddec_spin_density
 _atom_site_hse06_ddec_sum_bond_order
 _atom_site_hse06_magmom
 _atom_site_pbe_bader_spin_density
 _atom_site_pbe_cm5_charge
 _atom_site_pbe_ddec_charge
 _atom_site_pbe_ddec_spin_density
 _atom_site_pbe_ddec_sum_bond_order
 _atom_site_pbe_magmom
Ba  Ba0  1  0.23346592  0.99839176  0.81671232  1  0  1.679069  0  1.154415  0  0  1.534914  0  1.549867  0  0  1.573184  0  1.509004  0  0  0.985661  1.506834  0  1.578662  0
Ba  Ba1  1  0.68166704  0.41681369  0.68331824  1  0  1.678503  0  1.154694  0  0  1.534888  0  1.549277  0  0  1.573181  0  1.508428  0  0  0.985589  1.506991  0  1.577974  0
Ba  Ba2  1  0.76653491  0.00160978  0.18328796  1  0  1.679056  0  1.154408  0  0  1.53487  0  1.549912  0  0  1.57314  0  1.509049  0  0  0.985644  1.506789  0  1.578708  0
Ba  Ba3  1  0.31833446  0.58318632  0.31668211  1  0  1.678484  0  1.154729  0  0  1.534887  0  1.549283  0  0  1.573181  0  1.508433  0  0  0.985577  1.506989  0  1.57798  0
P  P4  1  0.91266283  0.69405128  0.43948089  1  0  1.457665  0  4.868277  0  0  1.275334  0  5.379502  0  0  1.326658  0  5.339564  0  0  0.315196  1.239766  0  5.406233  0
P  P5  1  0.75465107  0.47323881  0.06059338  1  0  1.460687  0  4.865898  0  0  1.278054  0  5.377248  0  0  1.329441  0  5.337318  0  0  0.315305  1.242447  0  5.403853  0
P  P6  1  0.08733875  0.30595179  0.56052144  1  0  1.457681  0  4.868244  0  0  1.275346  0  5.379463  0  0  1.326672  0  5.339522  0  0  0.315209  1.239777  0  5.406198  0
P  P7  1  0.24535052  0.52676427  0.93940713  1  0  1.460667  0  4.865884  0  0  1.27804  0  5.377226  0  0  1.329426  0  5.337297  0  0  0.315332  1.242435  0  5.403826  0
H  H8  1  0.85113266  0.49127623  0.38184916  1  0  -0.162749  0  0.950685  0  0  -0.132828  0  1.040942  0  0  -0.136212  0  1.036317  0  0  0.109525  -0.130695  0  1.04425  0
H  H9  1  0.60966268  0.46952179  0.11828907  1  0  -0.163659  0  0.951513  0  0  -0.133207  0  1.041363  0  0  -0.136726  0  1.036867  0  0  0.109702  -0.130946  0  1.044472  0
H  H10  1  0.14886741  0.50872377  0.61815178  1  0  -0.162762  0  0.950704  0  0  -0.132827  0  1.040942  0  0  -0.136211  0  1.036316  0  0  0.109528  -0.130694  0  1.044251  0
H  H11  1  0.39033815  0.53047975  0.88171120  1  0  -0.163634  0  0.951519  0  0  -0.133182  0  1.041359  0  0  -0.1367  0  1.036862  0  0  0.109711  -0.130921  0  1.044466  0
H  H12  1  0.26901111  0.88626581  0.51321218  1  0  0.417193  0  0.891971  0  0  0.384865  0  0.96289  0  0  0.397726  0  0.944395  0  0  0.320231  0.375838  0  0.975854  0
H  H13  1  0.87300874  0.75576454  0.98677576  1  0  0.417317  0  0.892394  0  0  0.384305  0  0.963972  0  0  0.397167  0  0.945477  0  0  0.319893  0.375278  0  0.976928  0
H  H14  1  0.73098896  0.11373421  0.48678695  1  0  0.41717  0  0.892009  0  0  0.384843  0  0.962921  0  0  0.397704  0  0.944429  0  0  0.32022  0.375817  0  0.975884  0
H  H15  1  0.12699208  0.24423701  0.01322270  1  0  0.417304  0  0.892424  0  0  0.384293  0  0.963993  0  0  0.397155  0  0.945499  0  0  0.319886  0.375266  0  0.976948  0
C  C16  1  0.67065172  0.86864784  0.82380072  1  0  0.577078  0  3.884993  0  0  0.531186  0  4.181317  0  0  0.561658  0  4.171309  0  0  0.247635  0.510446  0  4.187632  0
C  C17  1  0.54503126  0.84708845  0.67615897  1  0  0.575967  0  3.884388  0  0  0.529645  0  4.181743  0  0  0.559998  0  4.171932  0  0  0.246241  0.508953  0  4.187955  0
C  C18  1  0.32934760  0.13135063  0.17619908  1  0  0.577048  0  3.885005  0  0  0.531168  0  4.181304  0  0  0.561639  0  4.171299  0  0  0.247624  0.510427  0  4.187618  0
C  C19  1  0.45496662  0.15291003  0.32383962  1  0  0.576047  0  3.884358  0  0  0.529727  0  4.181694  0  0  0.560082  0  4.171883  0  0  0.246257  0.509034  0  4.187907  0
O  O20  1  0.94617432  0.71263709  0.58388398  1  0  -0.9303  0  1.979489  0  0  -0.843322  0  2.258171  0  0  -0.871092  0  2.239755  0  0  -0.449382  -0.823762  0  2.270394  0
O  O21  1  0.62868348  0.36216678  0.91621454  1  0  -0.930885  0  1.977753  0  0  -0.843951  0  2.256447  0  0  -0.871664  0  2.23791  0  0  -0.449065  -0.824295  0  2.268412  0
O  O22  1  0.05382432  0.28736293  0.41611485  1  0  -0.930292  0  1.979417  0  0  -0.843313  0  2.258109  0  0  -0.871086  0  2.239692  0  0  -0.44939  -0.823753  0  2.270332  0
O  O23  1  0.37131659  0.63783323  0.08378550  1  0  -0.930891  0  1.977771  0  0  -0.843959  0  2.256465  0  0  -0.871672  0  2.237927  0  0  -0.449078  -0.824302  0  2.268428  0
O  O24  1  0.75139632  0.75447036  0.35393659  1  0  -0.926182  0  1.971909  0  0  -0.837138  0  2.251603  0  0  -0.86501  0  2.23269  0  0  -0.464537  -0.817302  0  2.263781  0
O  O25  1  0.90059222  0.39747193  0.14611371  1  0  -0.926674  0  1.971723  0  0  -0.837575  0  2.251184  0  0  -0.86551  0  2.232427  0  0  -0.464658  -0.817666  0  2.263606  0
O  O26  1  0.24860376  0.24552965  0.64606345  1  0  -0.926176  0  1.971947  0  0  -0.837142  0  2.251653  0  0  -0.865013  0  2.23274  0  0  -0.464524  -0.817303  0  2.263826  0
O  O27  1  0.09940937  0.60253114  0.85388862  1  0  -0.926659  0  1.971751  0  0  -0.83757  0  2.25122  0  0  -0.865505  0  2.232465  0  0  -0.464672  -0.817662  0  2.26364  0
O  O28  1  0.14000254  0.81626228  0.42445714  1  0  -0.774255  0  2.040219  0  0  -0.696889  0  2.279532  0  0  -0.719301  0  2.253269  0  0  -0.392017  -0.681102  0  2.297492  0
O  O29  1  0.89199606  0.71562758  0.07557411  1  0  -0.77556  0  2.039983  0  0  -0.69767  0  2.279349  0  0  -0.720013  0  2.25288  0  0  -0.392313  -0.681939  0  2.297398  0
O  O30  1  0.85999610  0.18373772  0.57554260  1  0  -0.774249  0  2.040203  0  0  -0.696887  0  2.279521  0  0  -0.719298  0  2.253253  0  0  -0.392026  -0.681101  0  2.297481  0
O  O31  1  0.10800401  0.28437243  0.92442684  1  0  -0.775575  0  2.039974  0  0  -0.697687  0  2.279327  0  0  -0.720029  0  2.252858  0  0  -0.392331  -0.681957  0  2.297375  0
O  O32  1  0.61222031  0.92955364  0.90632398  1  0  -0.655823  0  2.039709  0  0  -0.599592  0  2.285929  0  0  -0.624369  0  2.277822  0  0  -0.3362  -0.582276  0  2.291031  0
O  O33  1  0.52378018  0.70642168  0.59356180  1  0  -0.65442  0  2.038134  0  0  -0.598279  0  2.284759  0  0  -0.623072  0  2.276789  0  0  -0.335163  -0.581108  0  2.289848  0
O  O34  1  0.38778043  0.07044485  0.09367432  1  0  -0.655841  0  2.03964  0  0  -0.599617  0  2.285863  0  0  -0.624393  0  2.277755  0  0  -0.336204  -0.5823  0  2.290965  0
O  O35  1  0.47621980  0.29357527  0.40643717  1  0  -0.65444  0  2.038188  0  0  -0.598293  0  2.284801  0  0  -0.623086  0  2.276832  0  0  -0.335163  -0.581121  0  2.28989  0
O  O36  1  0.81736592  0.81155438  0.84908855  1  0  -0.681591  0  2.077567  0  0  -0.616481  0  2.313963  0  0  -0.643152  0  2.305009  0  0  -0.335979  -0.597809  0  2.319755  0
O  O37  1  0.46258257  0.96845535  0.65092655  1  0  -0.681356  0  2.078106  0  0  -0.616224  0  2.314267  0  0  -0.642858  0  2.305362  0  0  -0.335647  -0.597617  0  2.320113  0
O  O38  1  0.18263701  0.18844564  0.15091119  1  0  -0.681563  0  2.077623  0  0  -0.616455  0  2.314  0  0  -0.643126  0  2.305048  0  0  -0.335954  -0.597784  0  2.319792  0
O  O39  1  0.53741733  0.03153852  0.34907316  1  0  -0.681399  0  2.078045  0  0  -0.616278  0  2.31423  0  0  -0.642912  0  2.305324  0  0  -0.335664  -0.597669  0  2.320075  0
