# generated using pymatgen
data_Cu4H5C5SI4N
_symmetry_space_group_name_H-M   'P 1'
_cell_length_a   4.01684218
_cell_length_b   11.07936496
_cell_length_c   15.46087887
_cell_angle_alpha   93.91160325
_cell_angle_beta   91.64761989
_cell_angle_gamma   98.40024639
_symmetry_Int_Tables_number   1
_chemical_formula_structural   Cu4H5C5SI4N
_chemical_formula_sum   'Cu8 H10 C10 S2 I8 N2'
_cell_volume   678.58161980
_cell_formula_units_Z   2
loop_
 _symmetry_equiv_pos_site_id
 _symmetry_equiv_pos_as_xyz
  1  'x, y, z'
loop_
 _atom_site_type_symbol
 _atom_site_label
 _atom_site_symmetry_multiplicity
 _atom_site_fract_x
 _atom_site_fract_y
 _atom_site_fract_z
 _atom_site_occupancy
 _atom_site_pbe_bader_spin_density
 _atom_site_pbe_cm5_charge
 _atom_site_pbe_ddec_charge
 _atom_site_pbe_ddec_spin_density
 _atom_site_pbe_ddec_sum_bond_order
 _atom_site_pbe_magmom
Cu  Cu0  1  0.78003873  0.57694027  0.48392276  1  0  0.138675  0.116036  0  2.755479  0
Cu  Cu1  1  0.21997838  0.42306088  0.51608355  1  0  0.138678  0.116085  0  2.755375  0
Cu  Cu2  1  0.87021962  0.71165427  0.65161165  1  0  0.233539  0.235537  0  2.69277  0
Cu  Cu3  1  0.12979312  0.28834351  0.34838857  1  0  0.233588  0.235586  0  2.692675  0
Cu  Cu4  1  0.42470339  0.69344090  0.85754193  1  0  0.193113  0.170201  0  2.695355  0
Cu  Cu5  1  0.57531536  0.30655986  0.14245271  1  0  0.193114  0.170126  0  2.695332  0
Cu  Cu6  1  0.76577454  0.55927487  0.96325815  1  0  0.133172  0.090167  0  2.79072  0
Cu  Cu7  1  0.23424863  0.44071813  0.03674434  1  0  0.133199  0.090208  0  2.790652  0
H  H8  1  0.45793149  0.91889643  0.86787428  1  0  0.271542  0.233094  0  1.030975  0
H  H9  1  0.54206693  0.08110215  0.13213048  1  0  0.271553  0.233054  0  1.031147  0
H  H10  1  0.48445293  0.95480199  0.60097401  1  0  0.086461  0.125305  0  1.063546  0
H  H11  1  0.51556062  0.04519765  0.39902571  1  0  0.0865  0.12536  0  1.063492  0
H  H12  1  0.58932036  0.18049956  0.62968839  1  0  0.082975  0.102523  0  1.067301  0
H  H13  1  0.41069803  0.81950022  0.37030747  1  0  0.082957  0.102503  0  1.067408  0
H  H14  1  0.62088227  0.27354950  0.78365168  1  0  0.084253  0.110296  0  1.05239  0
H  H15  1  0.37904838  0.72644897  0.21634440  1  0  0.084261  0.110399  0  1.052474  0
H  H16  1  0.54479426  0.12974337  0.90453299  1  0  0.097399  0.09021  0  1.056681  0
H  H17  1  0.45514310  0.87025863  0.09546531  1  0  0.097382  0.090165  0  1.05671  0
C  C18  1  0.46524699  0.92019317  0.73614710  1  0  0.114814  0.252763  0  3.906173  0
C  C19  1  0.53477858  0.07981097  0.26385299  1  0  0.114811  0.252692  0  3.906244  0
C  C20  1  0.50070651  0.99630461  0.66706868  1  0  -0.087712  -0.150888  0  3.896427  0
C  C21  1  0.49932561  0.00369221  0.33292960  1  0  -0.087809  -0.150991  0  3.896514  0
C  C22  1  0.55864749  0.12244247  0.68390982  1  0  -0.064649  0.011281  0  3.898712  0
C  C23  1  0.44130848  0.87755666  0.31608835  1  0  -0.064607  0.011386  0  3.898859  0
C  C24  1  0.57724829  0.17488283  0.76948976  1  0  -0.096438  -0.13542  0  3.971071  0
C  C25  1  0.42273242  0.82511627  0.23050591  1  0  -0.096428  -0.135567  0  3.971026  0
C  C26  1  0.53714704  0.09858968  0.83614318  1  0  0.03884  0.089102  0  3.900045  0
C  C27  1  0.46283882  0.90142021  0.16385719  1  0  0.039026  0.089332  0  3.899776  0
S  S28  1  0.39904216  0.76042872  0.72396061  1  0  -0.251418  -0.305786  0  3.637919  0
S  S29  1  0.60098439  0.23957154  0.27604373  1  0  -0.251339  -0.305655  0  3.637695  0
I  I30  1  0.74947369  0.47217900  0.63136739  1  0  -0.135802  -0.160006  0  2.628997  0
I  I31  1  0.25056233  0.52782034  0.36863563  1  0  -0.135826  -0.160062  0  2.628972  0
I  I32  1  0.91167077  0.81314210  0.50575927  1  0  -0.182453  -0.294849  0  2.154211  0
I  I33  1  0.08836314  0.18685270  0.49424276  1  0  -0.182437  -0.294854  0  2.154141  0
I  I34  1  0.93962744  0.79959923  0.95750765  1  0  -0.18188  -0.303738  0  2.229835  0
I  I35  1  0.06037398  0.20039604  0.04248846  1  0  -0.181894  -0.303736  0  2.229812  0
I  I36  1  0.22037559  0.46223847  0.86748626  1  0  -0.105643  -0.101378  0  2.673218  0
I  I37  1  0.77963474  0.53775923  0.13251588  1  0  -0.105692  -0.101449  0  2.673313  0
N  N38  1  0.48472430  0.97595473  0.81793397  1  0  -0.368793  -0.174459  0  3.692194  0
N  N39  1  0.51524912  0.02404974  0.18206594  1  0  -0.36903  -0.174575  0  3.692549  0
