# generated using pymatgen
data_CuH4(C2O)4
_symmetry_space_group_name_H-M   'P 1'
_cell_length_a   5.29225659
_cell_length_b   9.74430915
_cell_length_c   10.88396616
_cell_angle_alpha   91.32961904
_cell_angle_beta   89.09881897
_cell_angle_gamma   91.84599323
_symmetry_Int_Tables_number   1
_chemical_formula_structural   CuH4(C2O)4
_chemical_formula_sum   'Cu2 H8 C16 O8'
_cell_volume   560.77406245
_cell_formula_units_Z   2
loop_
 _symmetry_equiv_pos_site_id
 _symmetry_equiv_pos_as_xyz
  1  'x, y, z'
loop_
 _atom_site_type_symbol
 _atom_site_label
 _atom_site_symmetry_multiplicity
 _atom_site_fract_x
 _atom_site_fract_y
 _atom_site_fract_z
 _atom_site_occupancy
 _atom_site_pbe_bader_charge
 _atom_site_pbe_bader_spin_density
 _atom_site_pbe_cm5_charge
 _atom_site_pbe_ddec_charge
 _atom_site_pbe_ddec_spin_density
 _atom_site_pbe_ddec_sum_bond_order
 _atom_site_pbe_magmom
Cu  Cu0  1  0.70396633  0.43736561  0.49502019  1  1.090909  0.572261  0.689697  0.844251  0.728985  2.277953  0.572
Cu  Cu1  1  0.29602751  0.56263374  0.50498071  1  1.091687  0.572277  0.689688  0.844438  0.728971  2.277671  0.572
H  H2  1  0.84257726  0.19031644  0.63425816  1  0.117273  0.000229  0.107605  0.1158  7e-05  1.009963  0.0
H  H3  1  0.15743172  0.80968181  0.36573998  1  0.117288  0.000228  0.10761  0.11579  6.9e-05  1.009996  0.0
H  H4  1  0.37239052  0.04171852  0.36188719  1  0.091123  0.000511  0.110944  0.116778  0.00027  0.980234  0.0
H  H5  1  0.62761451  0.95827665  0.63810999  1  0.09114  0.000512  0.110948  0.116762  0.00027  0.980151  0.0
H  H6  1  0.16473887  0.61565361  0.88727697  1  0.133867  0.000636  0.109595  0.118712  0.000471  0.993458  0.0
H  H7  1  0.83525332  0.38434881  0.11272305  1  0.133819  0.000635  0.109617  0.118756  0.00047  0.993447  0.0
H  H8  1  0.83558675  0.37831564  0.88227496  1  0.093727  0.000586  0.108705  0.115859  0.000408  0.994356  0.0
H  H9  1  0.16440723  0.62168576  0.11772598  1  0.093764  0.000585  0.108702  0.11587  0.000407  0.994293  0.0
C  C10  1  0.91036890  0.10674605  0.57573905  1  0.026076  0.003461  -0.080541  -0.086885  0.002336  3.963629  0.002
C  C11  1  0.08962264  0.89324818  0.42426363  1  0.025955  0.003461  -0.080555  -0.086955  0.002336  3.963701  0.002
C  C12  1  0.11829769  0.12963335  0.49670898  1  -0.074632  0.018761  -0.009995  -0.02189  0.013135  3.958934  0.014
C  C13  1  0.88172069  0.87036175  0.50328454  1  -0.074094  0.018756  -0.009999  -0.021828  0.013136  3.959137  0.014
C  C14  1  0.25025899  0.26688489  0.49389852  1  1.517263  -0.001744  0.227556  0.598417  -0.002371  4.119808  -0.004
C  C15  1  0.74974409  0.73311135  0.50610236  1  1.516761  -0.001739  0.22745  0.598269  -0.002372  4.119907  -0.004
C  C16  1  0.20840399  0.02255317  0.42156479  1  -0.029508  0.003439  -0.077652  -0.087924  0.00232  3.956966  0.002
C  C17  1  0.79160332  0.97744921  0.57843525  1  -0.029506  0.003438  -0.077652  -0.087948  0.002319  3.957176  0.002
C  C18  1  0.31069715  0.56568268  0.93772702  1  -0.116028  0.00173  -0.080008  -0.093916  0.001028  3.967615  0.001
C  C19  1  0.68929877  0.43432079  0.06227670  1  -0.115987  0.001729  -0.079989  -0.094006  0.001027  3.967633  0.001
C  C20  1  0.49947054  0.49650844  0.87156274  1  0.045005  0.01478  -0.012414  -0.021768  0.010686  3.957768  0.012
C  C21  1  0.50053656  0.50349086  0.12843726  1  0.045032  0.014779  -0.012415  -0.021615  0.010686  3.957517  0.012
C  C22  1  0.49763383  0.49451646  0.73425866  1  1.499182  -0.001423  0.215854  0.572072  -0.002176  4.155605  -0.005
C  C23  1  0.50236229  0.50548801  0.26574139  1  1.499218  -0.001425  0.215834  0.571942  -0.002178  4.15553  -0.005
C  C24  1  0.68893614  0.43085226  0.93449002  1  -0.002679  0.001624  -0.080518  -0.093754  0.000948  3.971474  0.001
C  C25  1  0.31105440  0.56915220  0.06550727  1  -0.00279  0.001625  -0.080501  -0.093859  0.000948  3.971298  0.001
O  O26  1  0.49015302  0.26718936  0.48561007  1  -1.077737  0.10345  -0.297444  -0.509716  0.065623  2.383483  0.095
O  O27  1  0.50984854  0.73280992  0.51438625  1  -1.077707  0.103452  -0.297405  -0.509692  0.065624  2.383474  0.095
O  O28  1  0.11769908  0.37491607  0.50052556  1  -1.113373  0.084196  -0.311196  -0.542212  0.053563  2.450347  0.078
O  O29  1  0.88230566  0.62507918  0.49947990  1  -1.113644  0.084198  -0.311145  -0.542106  0.053566  2.450405  0.078
O  O30  1  0.68008392  0.43666007  0.67722629  1  -1.103305  0.093037  -0.310563  -0.519092  0.058901  2.347713  0.084
O  O31  1  0.31990030  0.56333726  0.32277551  1  -1.103322  0.093054  -0.310521  -0.519071  0.058911  2.347623  0.084
O  O32  1  0.31258239  0.55193103  0.68437098  1  -1.097377  0.104448  -0.309635  -0.50478  0.065804  2.347001  0.095
O  O33  1  0.68741981  0.44807959  0.31562916  1  -1.097399  0.104451  -0.309655  -0.504699  0.065807  2.347025  0.095
