# generated using pymatgen
data_CdHC2O3
_symmetry_space_group_name_H-M   'P 1'
_cell_length_a   3.64546179
_cell_length_b   8.76592051
_cell_length_c   10.56539059
_cell_angle_alpha   90.00209461
_cell_angle_beta   90.00160768
_cell_angle_gamma   102.46087531
_symmetry_Int_Tables_number   1
_chemical_formula_structural   CdHC2O3
_chemical_formula_sum   'Cd4 H4 C8 O12'
_cell_volume   329.67255035
_cell_formula_units_Z   4
loop_
 _symmetry_equiv_pos_site_id
 _symmetry_equiv_pos_as_xyz
  1  'x, y, z'
loop_
 _atom_site_type_symbol
 _atom_site_label
 _atom_site_symmetry_multiplicity
 _atom_site_fract_x
 _atom_site_fract_y
 _atom_site_fract_z
 _atom_site_occupancy
 _atom_site_pbe_bader_spin_density
 _atom_site_pbe_cm5_charge
 _atom_site_pbe_ddec_charge
 _atom_site_pbe_ddec_spin_density
 _atom_site_pbe_ddec_sum_bond_order
 _atom_site_pbe_magmom
Cd  Cd0  1  0.79386047  0.07340803  0.37596736  1  0  0.737699  1.071363  0  2.125154  0
Cd  Cd1  1  0.20614412  0.42658425  0.87596856  1  0  0.737691  1.071338  0  2.125368  0
Cd  Cd2  1  0.20616346  0.92659184  0.62403292  1  0  0.737719  1.071381  0  2.125099  0
Cd  Cd3  1  0.79385055  0.57341763  0.12403646  1  0  0.737717  1.071425  0  2.125228  0
H  H4  1  0.13567153  0.82199084  0.36596858  1  0  0.267707  0.371551  0  0.978148  0
H  H5  1  0.86432210  0.67799495  0.86597691  1  0  0.267724  0.37166  0  0.978015  0
H  H6  1  0.86432926  0.17800646  0.63402603  1  0  0.267702  0.371635  0  0.978052  0
H  H7  1  0.13567548  0.32199533  0.13402528  1  0  0.267667  0.371558  0  0.978149  0
C  C8  1  0.43274684  0.39885545  0.44456444  1  0  0.098383  0.176257  0  4.120305  0
C  C9  1  0.56725641  0.10114502  0.94455809  1  0  0.098371  0.176267  0  4.119723  0
C  C10  1  0.56720457  0.60116573  0.55544816  1  0  0.098466  0.176498  0  4.120072  0
C  C11  1  0.43280519  0.89884130  0.05542611  1  0  0.098349  0.176374  0  4.119538  0
C  C12  1  0.65474968  0.55914264  0.42498138  1  0  0.099215  0.16655  0  4.116741  0
C  C13  1  0.34521613  0.94085522  0.92496921  1  0  0.099349  0.166783  0  4.117158  0
C  C14  1  0.34519399  0.44087961  0.57502459  1  0  0.099231  0.166599  0  4.116741  0
C  C15  1  0.65483398  0.05912401  0.07502446  1  0  0.099331  0.166592  0  4.117291  0
O  O16  1  0.35931784  0.27813021  0.37585676  1  0  -0.308079  -0.46079  0  2.392406  0
O  O17  1  0.64066071  0.22187108  0.87584538  1  0  -0.308132  -0.46088  0  2.39217  0
O  O18  1  0.64065288  0.72189117  0.62414636  1  0  -0.308164  -0.460993  0  2.392464  0
O  O19  1  0.35938220  0.77811039  0.12414734  1  0  -0.308213  -0.461154  0  2.391898  0
O  O20  1  0.84381353  0.63153916  0.33492047  1  0  -0.29149  -0.424909  0  2.434319  0
O  O21  1  0.15612515  0.86846420  0.83493171  1  0  -0.291534  -0.425035  0  2.434584  0
O  O22  1  0.15611091  0.36847709  0.66508644  1  0  -0.291488  -0.425086  0  2.434299  0
O  O23  1  0.84388191  0.13151690  0.16506480  1  0  -0.291466  -0.42486  0  2.434947  0
O  O24  1  0.22070550  0.92571462  0.40529616  1  0  -0.603434  -0.900014  0  2.159844  0
O  O25  1  0.77930725  0.57428156  0.90530141  1  0  -0.603488  -0.900084  0  2.159727  0
O  O26  1  0.77932058  0.07428992  0.59470224  1  0  -0.603437  -0.900048  0  2.159665  0
O  O27  1  0.22068528  0.42571565  0.09469982  1  0  -0.603396  -0.899979  0  2.159715  0
