# generated using pymatgen
data_CoH8(C6N5)2
_symmetry_space_group_name_H-M   'P 1'
_cell_length_a   6.20227542
_cell_length_b   7.30309879
_cell_length_c   9.08778411
_cell_angle_alpha   115.10903971
_cell_angle_beta   103.69498630
_cell_angle_gamma   95.98635038
_symmetry_Int_Tables_number   1
_chemical_formula_structural   CoH8(C6N5)2
_chemical_formula_sum   'Co1 H8 C12 N10'
_cell_volume   352.19769058
_cell_formula_units_Z   1
loop_
 _symmetry_equiv_pos_site_id
 _symmetry_equiv_pos_as_xyz
  1  'x, y, z'
loop_
 _atom_site_type_symbol
 _atom_site_label
 _atom_site_symmetry_multiplicity
 _atom_site_fract_x
 _atom_site_fract_y
 _atom_site_fract_z
 _atom_site_occupancy
 _atom_site_hle17_ddec_charge
 _atom_site_hle17_ddec_spin_density
 _atom_site_hle17_ddec_sum_bond_order
 _atom_site_hle17_magmom
 _atom_site_hse06_10hf_ddec_charge
 _atom_site_hse06_10hf_ddec_spin_density
 _atom_site_hse06_10hf_ddec_sum_bond_order
 _atom_site_hse06_10hf_magmom
 _atom_site_hse06_ddec_charge
 _atom_site_hse06_ddec_spin_density
 _atom_site_hse06_ddec_sum_bond_order
 _atom_site_hse06_magmom
 _atom_site_pbe_cm5_charge
 _atom_site_pbe_ddec_charge
 _atom_site_pbe_ddec_spin_density
 _atom_site_pbe_ddec_sum_bond_order
 _atom_site_pbe_magmom
Co  Co0  1  0.49999562  0.99999129  0.99999454  1  0.750437  1.124227  2.7407  1.011  0.74195  1.020068  3.184215  0.942  0.790398  1.019336  3.119347  0.95  0.766335  0.71661  1.010752  3.222236  0.922
H  H1  1  0.22454892  0.70802622  0.37824343  1  0.08897  -0.000219  0.974441  0.0  0.090401  3.5e-05  1.044952  0.0  0.09302  3e-06  1.043837  0.0  0.114139  0.088386  6.6e-05  1.045918  0.0
H  H2  1  0.77544857  0.29194706  0.62173693  1  0.08897  -0.000218  0.974466  0.0  0.090468  3.5e-05  1.044915  0.0  0.093098  3e-06  1.043779  0.0  0.114115  0.088449  6.6e-05  1.045884  0.0
H  H3  1  0.60338761  0.66720716  0.32624852  1  0.108486  -8.1e-05  0.954534  0.0  0.117494  -0.000227  1.013097  0.0  0.119719  -0.000143  1.011612  0.0  0.111795  0.115665  -0.000293  1.014607  0.0
H  H4  1  0.39661425  0.33280474  0.67374408  1  0.108403  -8.1e-05  0.954565  0.0  0.117415  -0.000227  1.01314  0.0  0.119638  -0.000143  1.011655  0.0  0.111802  0.115585  -0.000293  1.01465  0.0
H  H5  1  0.95195004  0.78203317  0.59183002  1  0.119553  -0.000466  0.959706  -0.001  0.11855  -4.5e-05  1.032685  0.0  0.122394  -3.9e-05  1.03042  0.0  0.113791  0.115843  -5.3e-05  1.034318  0.0
H  H6  1  0.04804827  0.21796937  0.40816000  1  0.119585  -0.000467  0.959738  -0.001  0.11855  -4.5e-05  1.032732  0.0  0.122393  -3.9e-05  1.030469  0.0  0.113805  0.115843  -5.3e-05  1.034363  0.0
H  H7  1  0.88221971  0.91682434  0.87275661  1  0.108097  7e-06  0.966914  0.001  0.112295  -6.7e-05  1.034488  0.0  0.114327  -9.4e-05  1.032138  0.0  0.12695  0.110552  -1.6e-05  1.036661  0.0
H  H8  1  0.11776549  0.08313944  0.12723169  1  0.108019  7e-06  0.966882  0.001  0.112229  -6.7e-05  1.034476  0.0  0.114265  -9.4e-05  1.032131  0.0  0.126932  0.110488  -1.6e-05  1.036645  0.0
C  C9  1  0.38039916  0.74941097  0.48312497  1  0.066508  0.003592  3.714591  0.005  0.042621  0.000338  3.981472  0.001  0.042433  0.000577  3.99895  0.001  0.048198  0.042819  0.000202  3.970146  0.001
C  C10  1  0.61959667  0.25057159  0.51686362  1  0.06638  0.003591  3.714709  0.005  0.04243  0.00034  3.98163  0.001  0.042236  0.000577  3.999112  0.001  0.048153  0.042631  0.000203  3.970307  0.001
C  C11  1  0.59050241  0.72835369  0.45495941  1  -0.056496  -0.01847  3.696387  -0.012  -0.077391  -0.006999  3.947096  -0.004  -0.075055  -0.004958  3.964128  -0.003  -0.065596  -0.079581  -0.008804  3.936536  -0.005
C  C12  1  0.40950062  0.27164754  0.54503103  1  -0.056294  -0.018468  3.696331  -0.012  -0.077214  -0.006997  3.947043  -0.004  -0.074872  -0.004954  3.96407  -0.003  -0.065551  -0.079406  -0.008804  3.936484  -0.005
C  C13  1  0.77871879  0.78950358  0.59714474  1  -0.054002  0.00379  3.671447  0.006  -0.065642  0.000218  3.921781  0.001  -0.069635  0.000724  3.939312  0.001  -0.056989  -0.063278  -0.000287  3.910776  0.001
C  C14  1  0.22127654  0.21049271  0.40284493  1  -0.054038  0.003794  3.671435  0.006  -0.065584  0.00022  3.921752  0.001  -0.069575  0.000724  3.939289  0.001  -0.056971  -0.063216  -0.000287  3.91074  0.001
C  C15  1  0.74292718  0.86683882  0.75618830  1  0.097844  -0.016722  3.621251  -0.011  0.063993  -0.006404  3.873982  -0.004  0.070322  -0.005238  3.89105  -0.003  0.0593  0.059393  -0.007006  3.863846  -0.004
C  C16  1  0.25706191  0.13314343  0.24380010  1  0.097947  -0.016723  3.621161  -0.011  0.064004  -0.006413  3.873967  -0.004  0.070325  -0.005239  3.891032  -0.003  0.059329  0.059388  -0.007006  3.863855  -0.004
C  C17  1  0.16018830  0.56838157  0.88163377  1  0.466859  0.010222  3.968241  0.016  0.437552  0.011441  4.261488  0.018  0.460737  0.009996  4.27319  0.016  0.293919  0.422064  0.013056  4.25263  0.02
C  C18  1  0.77541839  0.72830604  0.10339734  1  0.487327  -0.021401  3.958426  -0.014  0.457211  -0.007063  4.246994  -0.004  0.484843  -0.006422  4.255101  -0.004  0.311511  0.438478  -0.006788  4.241057  -0.004
C  C19  1  0.83982351  0.43166844  0.11840273  1  0.466528  0.010224  3.968469  0.016  0.437204  0.011441  4.261719  0.018  0.460389  0.010005  4.273422  0.016  0.293757  0.421712  0.01306  4.252857  0.02
C  C20  1  0.22459633  0.27171639  0.89662847  1  0.487301  -0.021373  3.958277  -0.014  0.45719  -0.007047  4.24686  -0.004  0.484817  -0.006428  4.254973  -0.004  0.311516  0.438464  -0.006784  4.240918  -0.004
N  N21  1  0.53521114  0.88270924  0.77353471  1  -0.09741  -0.01891  3.342043  -0.012  -0.057274  -0.01036  3.629998  -0.007  -0.078093  -0.008573  3.650092  -0.006  -0.196569  -0.045071  -0.010719  3.616976  -0.007
N  N22  1  0.46477640  0.11726524  0.22645089  1  -0.097517  -0.018914  3.341841  -0.012  -0.057318  -0.010357  3.629775  -0.007  -0.078128  -0.008574  3.649858  -0.006  -0.196635  -0.045112  -0.01072  3.616748  -0.007
N  N23  1  0.35277328  0.82400923  0.63794022  1  -0.147089  -0.020687  3.00379  -0.016  -0.126793  -0.007676  3.277477  -0.006  -0.129739  -0.005635  3.294734  -0.004  -0.177469  -0.124551  -0.009321  3.266276  -0.007
N  N24  1  0.64721399  0.17596369  0.36204371  1  -0.147009  -0.020696  3.003666  -0.016  -0.126727  -0.007684  3.277373  -0.006  -0.129676  -0.005635  3.294632  -0.004  -0.177417  -0.124484  -0.009322  3.26617  -0.007
N  N25  1  0.19427419  0.74549447  0.91420022  1  -0.557309  0.014363  2.853315  0.024  -0.545464  0.015528  3.142625  0.023  -0.564528  0.010513  3.147727  0.017  -0.360488  -0.532226  0.020778  3.138261  0.029
N  N26  1  0.68112997  0.83487130  0.05707044  1  -0.54275  0.001735  3.181034  0.01  -0.527325  -0.000417  3.501283  0.002  -0.551573  -0.001261  3.502868  0.001  -0.393415  -0.512306  0.001305  3.499506  0.004
N  N27  1  0.80573965  0.25452145  0.08581011  1  -0.557078  0.014364  2.852825  0.024  -0.545273  0.015531  3.142108  0.023  -0.564339  0.010502  3.147218  0.017  -0.360371  -0.532033  0.020771  3.137738  0.029
N  N28  1  0.31888058  0.16513502  0.94292738  1  -0.542771  0.001715  3.181111  0.01  -0.527327  -0.000428  3.501332  0.002  -0.551584  -0.001257  3.50294  0.001  -0.393406  -0.512306  0.001305  3.499553  0.004
N  N29  1  0.10436726  0.37000063  0.83206795  1  -0.463743  0.001142  3.301826  0.004  -0.411161  0.001671  3.55961  0.003  -0.434328  0.000884  3.56197  0.002  -0.312259  -0.394452  0.002504  3.556969  0.004
N  N30  1  0.89563831  0.63003714  0.16797887  1  -0.463708  0.001124  3.302521  0.004  -0.411068  0.001656  3.560241  0.003  -0.43423  0.000881  3.562598  0.002  -0.312207  -0.394348  0.002504  3.557593  0.004
