# generated using pymatgen
data_AgH3(CN2)2
_symmetry_space_group_name_H-M   'P 1'
_cell_length_a   6.43407764
_cell_length_b   8.62477201
_cell_length_c   8.62473135
_cell_angle_alpha   82.59256639
_cell_angle_beta   110.78349649
_cell_angle_gamma   110.78395439
_symmetry_Int_Tables_number   1
_chemical_formula_structural   AgH3(CN2)2
_chemical_formula_sum   'Ag4 H12 C8 N16'
_cell_volume   418.34238074
_cell_formula_units_Z   4
loop_
 _symmetry_equiv_pos_site_id
 _symmetry_equiv_pos_as_xyz
  1  'x, y, z'
loop_
 _atom_site_type_symbol
 _atom_site_label
 _atom_site_symmetry_multiplicity
 _atom_site_fract_x
 _atom_site_fract_y
 _atom_site_fract_z
 _atom_site_occupancy
 _atom_site_hle17_bader_spin_density
 _atom_site_hle17_ddec_charge
 _atom_site_hle17_ddec_spin_density
 _atom_site_hle17_ddec_sum_bond_order
 _atom_site_hle17_magmom
 _atom_site_hse06_10hf_bader_spin_density
 _atom_site_hse06_10hf_ddec_charge
 _atom_site_hse06_10hf_ddec_spin_density
 _atom_site_hse06_10hf_ddec_sum_bond_order
 _atom_site_hse06_10hf_magmom
 _atom_site_hse06_bader_spin_density
 _atom_site_hse06_ddec_charge
 _atom_site_hse06_ddec_spin_density
 _atom_site_hse06_ddec_sum_bond_order
 _atom_site_hse06_magmom
 _atom_site_pbe_bader_spin_density
 _atom_site_pbe_cm5_charge
 _atom_site_pbe_ddec_charge
 _atom_site_pbe_ddec_spin_density
 _atom_site_pbe_ddec_sum_bond_order
 _atom_site_pbe_magmom
Ag  Ag0  1  0.88303743  0.76454450  0.00683371  1  0  0.500663  0  1.479834  0  0  0.344591  0  1.940719  0  0  0.368326  0  1.901579  0  0  0.485974  0.328333  0  1.967829  0
Ag  Ag1  1  0.61695894  0.99317473  0.23545131  1  0  0.500724  0  1.479689  0  0  0.344629  0  1.940609  0  0  0.368376  0  1.901448  0  0  0.485953  0.328373  0  1.967721  0
Ag  Ag2  1  0.11697343  0.23545119  0.99316621  1  0  0.50069  0  1.479883  0  0  0.344623  0  1.940788  0  0  0.368364  0  1.901639  0  0  0.48597  0.328368  0  1.9679  0
Ag  Ag3  1  0.38302816  0.00681822  0.76454756  1  0  0.500734  0  1.479795  0  0  0.344665  0  1.940717  0  0  0.368407  0  1.901562  0  0  0.485977  0.32841  0  1.967829  0
H  H4  1  0.00416038  0.61472339  0.35247596  1  0  0.130311  0  0.968279  0  0  0.146782  0  1.03516  0  0  0.148944  0  1.033954  0  0  0.097129  0.14515  0  1.036095  0
H  H5  1  0.49579250  0.64751804  0.38529650  1  0  0.130165  0  0.968362  0  0  0.146838  0  1.035061  0  0  0.149002  0  1.033854  0  0  0.09718  0.145206  0  1.035994  0
H  H6  1  0.99582833  0.38528039  0.64752323  1  0  0.130354  0  0.968317  0  0  0.146833  0  1.035175  0  0  0.148995  0  1.033968  0  0  0.097198  0.145203  0  1.036106  0
H  H7  1  0.50420822  0.35247480  0.61470733  1  0  0.130224  0  0.968314  0  0  0.146865  0  1.035023  0  0  0.149028  0  1.033818  0  0  0.097219  0.145237  0  1.035951  0
H  H8  1  0.93961293  0.67917650  0.51367594  1  0  0.129334  0  0.956087  0  0  0.147712  0  1.021065  0  0  0.14867  0  1.021485  0  0  0.100028  0.146982  0  1.020833  0
H  H9  1  0.56033024  0.48630187  0.32084085  1  0  0.129321  0  0.956004  0  0  0.147738  0  1.020972  0  0  0.148696  0  1.02139  0  0  0.099991  0.147004  0  1.020739  0
H  H10  1  0.06038358  0.32083909  0.48633179  1  0  0.129333  0  0.956245  0  0  0.147719  0  1.021188  0  0  0.148676  0  1.021609  0  0  0.099994  0.146988  0  1.020957  0
H  H11  1  0.43966952  0.51367823  0.67915926  1  0  0.12924  0  0.956099  0  0  0.147675  0  1.021066  0  0  0.148631  0  1.021489  0  0  0.099978  0.146944  0  1.020836  0
H  H12  1  0.22868921  0.68323304  0.54867552  1  0  0.127452  0  0.965614  0  0  0.142185  0  1.036792  0  0  0.143896  0  1.035938  0  0  0.098328  0.140914  0  1.037457  0
H  H13  1  0.27123748  0.45132013  0.31676803  1  0  0.12743  0  0.965559  0  0  0.142115  0  1.036846  0  0  0.143823  0  1.035996  0  0  0.09831  0.140841  0  1.037504  0
H  H14  1  0.77131508  0.31677661  0.45133019  1  0  0.127451  0  0.965671  0  0  0.142152  0  1.036866  0  0  0.14386  0  1.036015  0  0  0.098319  0.140881  0  1.03753  0
H  H15  1  0.72874539  0.54866729  0.68322299  1  0  0.127474  0  0.965488  0  0  0.142186  0  1.036733  0  0  0.143895  0  1.035888  0  0  0.098358  0.140913  0  1.037391  0
C  C16  1  0.13377559  0.87546735  0.39275416  1  0  0.378088  0  3.768284  0  0  0.363057  0  4.031765  0  0  0.374915  0  4.048151  0  0  0.213559  0.354987  0  4.020676  0
C  C17  1  0.36620994  0.60724154  0.12453730  1  0  0.37803  0  3.768405  0  0  0.362979  0  4.031922  0  0  0.374818  0  4.048348  0  0  0.213567  0.354911  0  4.020832  0
C  C18  1  0.86620845  0.12454309  0.60724414  1  0  0.378086  0  3.768445  0  0  0.363047  0  4.031893  0  0  0.374885  0  4.048314  0  0  0.213568  0.354981  0  4.020797  0
C  C19  1  0.63377903  0.39275306  0.87545958  1  0  0.377937  0  3.768667  0  0  0.362949  0  4.032074  0  0  0.374782  0  4.048508  0  0  0.213575  0.354897  0  4.020955  0
C  C20  1  0.07318040  0.70296164  0.45408799  1  0  -0.389005  0  3.68449  0  0  -0.46492  0  3.912282  0  0  -0.468432  0  3.919633  0  0  -0.239912  -0.46218  0  3.907211  0
C  C21  1  0.42677805  0.54590217  0.29706131  1  0  -0.388849  0  3.684038  0  0  -0.465014  0  3.911797  0  0  -0.468516  0  3.91915  0  0  -0.239972  -0.462263  0  3.906713  0
C  C22  1  0.92681815  0.29705260  0.54591310  1  0  -0.389025  0  3.684737  0  0  -0.464945  0  3.912526  0  0  -0.468448  0  3.919882  0  0  -0.239956  -0.462209  0  3.907457  0
C  C23  1  0.57322760  0.45408044  0.70295400  1  0  -0.38887  0  3.684474  0  0  -0.465079  0  3.91234  0  0  -0.46858  0  3.919698  0  0  -0.240035  -0.46234  0  3.907251  0
N  N24  1  0.07889490  0.92267639  0.23307741  1  0  -0.35594  0  3.239016  0  0  -0.287919  0  3.542084  0  0  -0.302939  0  3.550483  0  0  -0.268082  -0.277811  0  3.536473  0
N  N25  1  0.42108163  0.76691133  0.07733495  1  0  -0.355745  0  3.239247  0  0  -0.287715  0  3.542301  0  0  -0.302729  0  3.550713  0  0  -0.268  -0.277609  0  3.536698  0
N  N26  1  0.92111243  0.07733123  0.76691833  1  0  -0.355955  0  3.239262  0  0  -0.287932  0  3.542325  0  0  -0.302949  0  3.550736  0  0  -0.268085  -0.277822  0  3.536705  0
N  N27  1  0.57892233  0.23307763  0.92266481  1  0  -0.355827  0  3.239228  0  0  -0.287836  0  3.542296  0  0  -0.302848  0  3.550706  0  0  -0.268066  -0.277736  0  3.536685  0
N  N28  1  0.16652426  0.09117972  0.23494113  1  0  -0.122978  0  3.26934  0  0  -0.071135  0  3.593632  0  0  -0.076445  0  3.601977  0  0  -0.138403  -0.067465  0  3.588099  0
N  N29  1  0.33347981  0.76505798  0.90883239  1  0  -0.123079  0  3.269732  0  0  -0.071248  0  3.594046  0  0  -0.076556  0  3.602391  0  0  -0.138559  -0.067578  0  3.588515  0
N  N30  1  0.83347492  0.90882655  0.76505773  1  0  -0.122789  0  3.269262  0  0  -0.070925  0  3.593506  0  0  -0.076234  0  3.601851  0  0  -0.138385  -0.067255  0  3.587971  0
N  N31  1  0.66653365  0.23494181  0.09116569  1  0  -0.123044  0  3.269647  0  0  -0.071202  0  3.593974  0  0  -0.07651  0  3.602319  0  0  -0.13847  -0.067533  0  3.588445  0
N  N32  1  0.26956533  0.14391894  0.38896646  1  0  -0.077503  0  2.990012  0  0  -0.065867  0  3.276849  0  0  -0.064633  0  3.290314  0  0  -0.092679  -0.066488  0  3.267752  0
N  N33  1  0.23046701  0.61103468  0.85608821  1  0  -0.077682  0  2.990352  0  0  -0.066023  0  3.27713  0  0  -0.064788  0  3.290594  0  0  -0.0927  -0.066643  0  3.268036  0
N  N34  1  0.73042325  0.85608943  0.61103388  1  0  -0.077715  0  2.990285  0  0  -0.066111  0  3.277155  0  0  -0.064878  0  3.290617  0  0  -0.09278  -0.066733  0  3.268059  0
N  N35  1  0.76953627  0.38896557  0.14390557  1  0  -0.077659  0  2.990462  0  0  -0.066024  0  3.277268  0  0  -0.064789  0  3.290732  0  0  -0.092716  -0.066644  0  3.268172  0
N  N36  1  0.25116769  0.01073923  0.49016715  1  0  -0.320472  0  3.212696  0  0  -0.254514  0  3.524217  0  0  -0.272335  0  3.537712  0  0  -0.255953  -0.242455  0  3.514964  0
N  N37  1  0.24882724  0.50983439  0.98927474  1  0  -0.320281  0  3.212997  0  0  -0.25429  0  3.524435  0  0  -0.272107  0  3.537939  0  0  -0.255769  -0.242231  0  3.515182  0
N  N38  1  0.74883184  0.98927273  0.50983413  1  0  -0.320429  0  3.212872  0  0  -0.254448  0  3.524336  0  0  -0.272265  0  3.537841  0  0  -0.255847  -0.24239  0  3.515084  0
N  N39  1  0.75121197  0.49016519  0.01072126  1  0  -0.320192  0  3.213204  0  0  -0.254193  0  3.524579  0  0  -0.272008  0  3.538093  0  0  -0.255804  -0.242138  0  3.515316  0
