# generated using pymatgen
data_FeH8Pd(C3N2)4
_symmetry_space_group_name_H-M   'P 1'
_cell_length_a   7.23257584
_cell_length_b   7.27575481
_cell_length_c   7.02095999
_cell_angle_alpha   89.99990633
_cell_angle_beta   90.00132099
_cell_angle_gamma   97.49354094
_symmetry_Int_Tables_number   1
_chemical_formula_structural   FeH8Pd(C3N2)4
_chemical_formula_sum   'Fe1 H8 Pd1 C12 N8'
_cell_volume   366.30475668
_cell_formula_units_Z   1
loop_
 _symmetry_equiv_pos_site_id
 _symmetry_equiv_pos_as_xyz
  1  'x, y, z'
loop_
 _atom_site_type_symbol
 _atom_site_label
 _atom_site_symmetry_multiplicity
 _atom_site_fract_x
 _atom_site_fract_y
 _atom_site_fract_z
 _atom_site_occupancy
 _atom_site_pbe_bader_spin_density
 _atom_site_pbe_cm5_charge
 _atom_site_pbe_ddec_charge
 _atom_site_pbe_ddec_spin_density
 _atom_site_pbe_ddec_sum_bond_order
 _atom_site_pbe_magmom
Fe  Fe0  1  0.52297411  0.00157154  0.50000467  1  0  0.823955  0.590167  0  3.703678  0
H  H1  1  0.81386717  0.01144427  0.79602455  1  0  0.131674  0.112116  0  0.985372  0
H  H2  1  0.16031987  0.98974161  0.79498489  1  0  0.128471  0.105861  0  0.975223  0
H  H3  1  0.16030616  0.98974109  0.20503280  1  0  0.128426  0.105785  0  0.975148  0
H  H4  1  0.81385377  0.01144653  0.20399012  1  0  0.131709  0.112193  0  0.985389  0
H  H5  1  0.85441543  0.57351569  0.79494491  1  0  0.091806  0.054697  0  1.054024  0
H  H6  1  0.15236425  0.42580159  0.79499383  1  0  0.090877  0.05319  0  1.055696  0
H  H7  1  0.15235299  0.42579833  0.20498335  1  0  0.090793  0.053092  0  1.055757  0
H  H8  1  0.85440653  0.57352077  0.20502843  1  0  0.091752  0.054642  0  1.05394  0
Pd  Pd9  1  0.50206540  0.49915674  0.00000257  1  0  0.639394  0.122526  0  4.154416  0
C  C10  1  0.89207782  0.00662641  0.66432695  1  0  0.057897  0.031555  0  3.875392  0
C  C11  1  0.08188996  0.99365128  0.66279977  1  0  0.066103  0.04695  0  3.946701  0
C  C12  1  0.08188329  0.99364962  0.33721893  1  0  0.066135  0.047035  0  3.946698  0
C  C13  1  0.89207021  0.00662889  0.33568955  1  0  0.057958  0.03153  0  3.875319  0
C  C14  1  0.49588825  0.69406774  0.80434532  1  0  -0.015381  0.030073  0  3.801437  0
C  C15  1  0.51550009  0.30559922  0.80429034  1  0  -0.014949  0.031025  0  3.80429  0
C  C16  1  0.51550687  0.30561003  0.19572541  1  0  -0.014912  0.031233  0  3.80423  0
C  C17  1  0.49588224  0.69407561  0.19566218  1  0  -0.015324  0.030197  0  3.801644  0
C  C18  1  0.92162443  0.54101103  0.66169471  1  0  0.037551  0.034873  0  3.983653  0
C  C19  1  0.08525469  0.45837802  0.66167507  1  0  0.036723  0.034625  0  3.985168  0
C  C20  1  0.08525008  0.45838192  0.33829764  1  0  0.036699  0.034556  0  3.985306  0
C  C21  1  0.92162104  0.54101357  0.33827882  1  0  0.037537  0.034961  0  3.983809  0
N  N22  1  0.79418471  0.01047297  0.50000782  1  0  -0.300383  -0.090636  0  3.590872  0
N  N23  1  0.17654944  0.98599267  0.50000832  1  0  -0.261663  -0.141477  0  3.402719  0
N  N24  1  0.50047509  0.81352138  0.69212273  1  0  -0.381284  -0.292946  0  3.5976  0
N  N25  1  0.52479899  0.18801038  0.69223465  1  0  -0.382674  -0.29416  0  3.595014  0
N  N26  1  0.52480027  0.18801156  0.30778010  1  0  -0.382714  -0.294343  0  3.59506  0
N  N27  1  0.50046790  0.81352107  0.30787755  1  0  -0.381326  -0.293065  0  3.598002  0
N  N28  1  0.83901372  0.58302157  0.49998648  1  0  -0.297618  -0.18753  0  3.308385  0
N  N29  1  0.16833405  0.41701988  0.49998878  1  0  -0.297233  -0.188724  0  3.305395  0
