# generated using pymatgen
data_CdH4(CO3)2
_symmetry_space_group_name_H-M   'P 1'
_cell_length_a   5.98604544
_cell_length_b   6.34527784
_cell_length_c   8.96880064
_cell_angle_alpha   76.14970554
_cell_angle_beta   72.52299959
_cell_angle_gamma   78.87474719
_symmetry_Int_Tables_number   1
_chemical_formula_structural   CdH4(CO3)2
_chemical_formula_sum   'Cd2 H8 C4 O12'
_cell_volume   312.78235047
_cell_formula_units_Z   2
loop_
 _symmetry_equiv_pos_site_id
 _symmetry_equiv_pos_as_xyz
  1  'x, y, z'
loop_
 _atom_site_type_symbol
 _atom_site_label
 _atom_site_symmetry_multiplicity
 _atom_site_fract_x
 _atom_site_fract_y
 _atom_site_fract_z
 _atom_site_occupancy
 _atom_site_hle17_bader_spin_density
 _atom_site_hle17_ddec_charge
 _atom_site_hle17_ddec_spin_density
 _atom_site_hle17_ddec_sum_bond_order
 _atom_site_hle17_magmom
 _atom_site_hse06_10hf_bader_spin_density
 _atom_site_hse06_10hf_ddec_charge
 _atom_site_hse06_10hf_ddec_spin_density
 _atom_site_hse06_10hf_ddec_sum_bond_order
 _atom_site_hse06_10hf_magmom
 _atom_site_hse06_bader_spin_density
 _atom_site_hse06_ddec_charge
 _atom_site_hse06_ddec_spin_density
 _atom_site_hse06_ddec_sum_bond_order
 _atom_site_hse06_magmom
 _atom_site_pbe_bader_spin_density
 _atom_site_pbe_cm5_charge
 _atom_site_pbe_ddec_charge
 _atom_site_pbe_ddec_spin_density
 _atom_site_pbe_ddec_sum_bond_order
 _atom_site_pbe_magmom
Cd  Cd0  1  0.70764544  0.05483217  0.35326105  1  0  1.279277  0  1.570049  0  0  1.104487  0  2.010581  0  0  1.160313  0  1.952287  0  0  0.77872  1.064224  0  2.050906  0
Cd  Cd1  1  0.61291054  0.43901265  0.93882850  1  0  1.27559  0  1.565062  0  0  1.103741  0  2.003097  0  0  1.159729  0  1.944542  0  0  0.772851  1.063419  0  2.043583  0
H  H2  1  0.97844318  0.70498576  0.19988477  1  0  0.445821  0  0.794479  0  0  0.423418  0  0.852451  0  0  0.431724  0  0.843606  0  0  0.328112  0.417474  0  0.858825  0
H  H3  1  0.75865659  0.59389365  0.32948811  1  0  0.435244  0  0.868985  0  0  0.398743  0  0.939875  0  0  0.410749  0  0.922724  0  0  0.293789  0.390265  0  0.951951  0
H  H4  1  0.26916898  0.91653246  0.45878762  1  0  0.429388  0  0.868526  0  0  0.398596  0  0.930456  0  0  0.410332  0  0.913406  0  0  0.289104  0.390218  0  0.942613  0
H  H5  1  0.42551177  0.76072046  0.57474444  1  0  0.427136  0  0.873651  0  0  0.393879  0  0.939894  0  0  0.405852  0  0.922537  0  0  0.287484  0.385363  0  0.952218  0
H  H6  1  0.90118058  0.72588502  0.71175402  1  0  0.423362  0  0.877409  0  0  0.390539  0  0.943557  0  0  0.402503  0  0.92613  0  0  0.286064  0.382021  0  0.955952  0
H  H7  1  0.05746255  0.56632653  0.82421761  1  0  0.425395  0  0.872157  0  0  0.394621  0  0.934577  0  0  0.406155  0  0.917733  0  0  0.288344  0.386402  0  0.946567  0
H  H8  1  0.63263381  0.73693734  0.11900518  1  0  0.421774  0  0.877052  0  0  0.394455  0  0.934096  0  0  0.405055  0  0.91874  0  0  0.287693  0.386894  0  0.945045  0
H  H9  1  0.58874270  0.88241327  0.96113524  1  0  0.423531  0  0.880861  0  0  0.391646  0  0.945202  0  0  0.403163  0  0.928662  0  0  0.286359  0.383478  0  0.956905  0
C  C10  1  0.63197182  0.36310433  0.59533263  1  0  0.563839  0  3.862215  0  0  0.513718  0  4.156813  0  0  0.54402  0  4.15026  0  0  0.219561  0.493017  0  4.160622  0
C  C11  1  0.69830342  0.13232349  0.69301311  1  0  0.562914  0  3.87667  0  0  0.514206  0  4.169493  0  0  0.54437  0  4.163678  0  0  0.217874  0.49367  0  4.172687  0
C  C12  1  0.22940002  0.16452017  0.20534382  1  0  0.558884  0  3.899397  0  0  0.509694  0  4.195094  0  0  0.540261  0  4.189221  0  0  0.210645  0.488818  0  4.198406  0
C  C13  1  0.09549770  0.31020923  0.08408971  1  0  0.550263  0  3.906784  0  0  0.502498  0  4.201617  0  0  0.532691  0  4.196015  0  0  0.210691  0.481907  0  4.204729  0
O  O14  1  0.67039758  0.37945490  0.44484292  1  0  -0.631531  0  2.088656  0  0  -0.563536  0  2.327181  0  0  -0.592373  0  2.3154  0  0  -0.314961  -0.543289  0  2.334664  0
O  O15  1  0.54646332  0.51825320  0.66868805  1  0  -0.569553  0  2.07468  0  0  -0.503267  0  2.30034  0  0  -0.53  0  2.29125  0  0  -0.282999  -0.484622  0  2.306171  0
O  O16  1  0.77502804  0.97561376  0.61971632  1  0  -0.581997  0  2.068835  0  0  -0.516471  0  2.296482  0  0  -0.543679  0  2.287317  0  0  -0.290731  -0.497422  0  2.302267  0
O  O17  1  0.66954710  0.11753180  0.84157361  1  0  -0.617364  0  2.081167  0  0  -0.550405  0  2.316512  0  0  -0.579388  0  2.305846  0  0  -0.308643  -0.530077  0  2.323204  0
O  O18  1  0.43383660  0.20811878  0.19071360  1  0  -0.624112  0  2.112546  0  0  -0.553679  0  2.369707  0  0  -0.584366  0  2.35954  0  0  -0.309348  -0.532055  0  2.37596  0
O  O19  1  0.12447132  0.01702780  0.30941306  1  0  -0.601386  0  2.093403  0  0  -0.539343  0  2.32901  0  0  -0.566578  0  2.318365  0  0  -0.299892  -0.520267  0  2.335826  0
O  O20  1  0.19698511  0.46143369  0.98203442  1  0  -0.597769  0  2.079264  0  0  -0.535337  0  2.313481  0  0  -0.562493  0  2.303057  0  0  -0.297941  -0.516328  0  2.320159  0
O  O21  1  0.89000629  0.26818833  0.09956642  1  0  -0.626256  0  2.122407  0  0  -0.556157  0  2.380075  0  0  -0.586721  0  2.369971  0  0  -0.311189  -0.534633  0  2.386276  0
O  O22  1  0.80834910  0.72983600  0.24740930  1  0  -0.835562  0  1.881013  0  0  -0.765324  0  2.075202  0  0  -0.788536  0  2.043961  0  0  -0.553557  -0.748852  0  2.096874  0
O  O23  1  0.37975859  0.91390600  0.52276347  1  0  -0.849947  0  1.857341  0  0  -0.785387  0  2.041757  0  0  -0.810252  0  2.006336  0  0  -0.596345  -0.767758  0  2.066395  0
O  O24  1  0.94871297  0.57098799  0.75893498  1  0  -0.848114  0  1.858966  0  0  -0.787662  0  2.038446  0  0  -0.811625  0  2.003257  0  0  -0.596883  -0.770669  0  2.062937  0
O  O25  1  0.53624979  0.75135359  0.04342978  1  0  -0.838829  0  1.832777  0  0  -0.777673  0  2.014682  0  0  -0.800908  0  1.979786  0  0  -0.594802  -0.761195  0  2.039002  0
