# generated using pymatgen
data_Tl2H3C7NO4
_symmetry_space_group_name_H-M   'P 1'
_cell_length_a   7.56622534
_cell_length_b   8.06219250
_cell_length_c   8.06211494
_cell_angle_alpha   100.88530072
_cell_angle_beta   99.06427144
_cell_angle_gamma   99.06465490
_symmetry_Int_Tables_number   1
_chemical_formula_structural   Tl2H3C7NO4
_chemical_formula_sum   'Tl4 H6 C14 N2 O8'
_cell_volume   467.93234857
_cell_formula_units_Z   2
loop_
 _symmetry_equiv_pos_site_id
 _symmetry_equiv_pos_as_xyz
  1  'x, y, z'
loop_
 _atom_site_type_symbol
 _atom_site_label
 _atom_site_symmetry_multiplicity
 _atom_site_fract_x
 _atom_site_fract_y
 _atom_site_fract_z
 _atom_site_occupancy
 _atom_site_pbe_bader_spin_density
 _atom_site_pbe_cm5_charge
 _atom_site_pbe_ddec_charge
 _atom_site_pbe_ddec_spin_density
 _atom_site_pbe_ddec_sum_bond_order
 _atom_site_pbe_magmom
Tl  Tl0  1  0.51245435  0.70616573  0.38832536  1  0  0.418513  0.677376  0  1.107528  0
Tl  Tl1  1  0.98754165  0.61166942  0.29383184  1  0  0.418511  0.677365  0  1.107526  0
Tl  Tl2  1  0.48754438  0.29383255  0.61167240  1  0  0.418509  0.677345  0  1.107577  0
Tl  Tl3  1  0.01245824  0.38832761  0.70616831  1  0  0.418511  0.677364  0  1.107539  0
H  H4  1  0.25000628  0.15895465  0.84105836  1  0  0.097786  0.068211  0  1.09826  0
H  H5  1  0.74998904  0.84104616  0.15894564  1  0  0.097759  0.06813  0  1.098097  0
H  H6  1  0.29542051  0.66467366  0.95430556  1  0  0.115052  0.087104  0  1.030007  0
H  H7  1  0.20456971  0.04570111  0.33533839  1  0  0.115048  0.087117  0  1.029882  0
H  H8  1  0.70458096  0.33532468  0.04569504  1  0  0.115041  0.08705  0  1.030071  0
H  H9  1  0.79542302  0.95430091  0.66465930  1  0  0.115057  0.087152  0  1.02996  0
C  C10  1  0.27082329  0.90218015  0.87168610  1  0  -0.013195  -0.065198  0  3.926179  0
C  C11  1  0.22917573  0.12832560  0.09781731  1  0  -0.013425  -0.065515  0  3.926262  0
C  C12  1  0.72917304  0.09781046  0.12832604  1  0  -0.013443  -0.065591  0  3.926439  0
C  C13  1  0.77082440  0.87166627  0.90217570  1  0  -0.013373  -0.065506  0  3.926304  0
C  C14  1  0.25000538  0.07134664  0.92866886  1  0  -0.056064  -0.056406  0  3.921004  0
C  C15  1  0.74999690  0.92867093  0.07133174  1  0  -0.056013  -0.056216  0  3.920776  0
C  C16  1  0.29265562  0.83365637  0.69003014  1  0  0.196131  0.570988  0  4.258215  0
C  C17  1  0.20734834  0.30997878  0.16634709  1  0  0.196162  0.571079  0  4.258073  0
C  C18  1  0.70734800  0.16633943  0.30996778  1  0  0.196297  0.571339  0  4.257986  0
C  C19  1  0.79265376  0.69002339  0.83365059  1  0  0.196257  0.571238  0  4.258021  0
C  C20  1  0.27320998  0.79605830  0.99039070  1  0  0.056014  0.083523  0  3.928192  0
C  C21  1  0.22678259  0.00960556  0.20394928  1  0  0.056083  0.083595  0  3.928035  0
C  C22  1  0.72678448  0.20394629  0.00960397  1  0  0.056139  0.083688  0  3.927958  0
C  C23  1  0.77321271  0.99038112  0.79604834  1  0  0.056047  0.083556  0  3.927749  0
N  N24  1  0.24999757  0.84766364  0.15235192  1  0  -0.310454  -0.290447  0  3.47022  0
N  N25  1  0.74999892  0.15235128  0.84764992  1  0  -0.310482  -0.29047  0  3.469695  0
O  O26  1  0.30694901  0.93780293  0.59029593  1  0  -0.320391  -0.595813  0  2.189359  0
O  O27  1  0.19305534  0.40970798  0.06219398  1  0  -0.320389  -0.595816  0  2.189317  0
O  O28  1  0.69305816  0.06219036  0.40970197  1  0  -0.320415  -0.595898  0  2.189243  0
O  O29  1  0.80694882  0.59029808  0.93780470  1  0  -0.320419  -0.595873  0  2.189209  0
O  O30  1  0.29592750  0.67349706  0.64749829  1  0  -0.317711  -0.61859  0  2.215449  0
O  O31  1  0.20408001  0.35251860  0.32651390  1  0  -0.317664  -0.61856  0  2.215396  0
O  O32  1  0.70407546  0.32649366  0.35251100  1  0  -0.317754  -0.618702  0  2.2154  0
O  O33  1  0.79592546  0.64748625  0.67349340  1  0  -0.317724  -0.618626  0  2.215313  0
