# generated using pymatgen
data_CuH4C3NCl
_symmetry_space_group_name_H-M   'P 1'
_cell_length_a   3.69139670
_cell_length_b   7.95450805
_cell_length_c   15.07199758
_cell_angle_alpha   83.07357840
_cell_angle_beta   88.74738006
_cell_angle_gamma   79.52602313
_symmetry_Int_Tables_number   1
_chemical_formula_structural   CuH4C3NCl
_chemical_formula_sum   'Cu4 H16 C12 N4 Cl4'
_cell_volume   432.01250655
_cell_formula_units_Z   4
loop_
 _symmetry_equiv_pos_site_id
 _symmetry_equiv_pos_as_xyz
  1  'x, y, z'
loop_
 _atom_site_type_symbol
 _atom_site_label
 _atom_site_symmetry_multiplicity
 _atom_site_fract_x
 _atom_site_fract_y
 _atom_site_fract_z
 _atom_site_occupancy
 _atom_site_hle17_bader_spin_density
 _atom_site_hle17_ddec_charge
 _atom_site_hle17_ddec_spin_density
 _atom_site_hle17_ddec_sum_bond_order
 _atom_site_hle17_magmom
 _atom_site_hse06_10hf_bader_spin_density
 _atom_site_hse06_10hf_ddec_charge
 _atom_site_hse06_10hf_ddec_spin_density
 _atom_site_hse06_10hf_ddec_sum_bond_order
 _atom_site_hse06_10hf_magmom
 _atom_site_hse06_bader_spin_density
 _atom_site_hse06_ddec_charge
 _atom_site_hse06_ddec_spin_density
 _atom_site_hse06_ddec_sum_bond_order
 _atom_site_hse06_magmom
 _atom_site_pbe_bader_spin_density
 _atom_site_pbe_cm5_charge
 _atom_site_pbe_ddec_charge
 _atom_site_pbe_ddec_spin_density
 _atom_site_pbe_ddec_sum_bond_order
 _atom_site_pbe_magmom
Cu  Cu0  1  0.24324023  0.61600696  0.56479478  1  0  0.476901  0  1.861516  0  0  0.385886  0  2.32301  0  0  0.385423  0  2.279143  0  0  0.389422  0.387352  0  2.351822  0
Cu  Cu1  1  0.75677530  0.38400293  0.43520455  1  0  0.47691  0  1.861575  0  0  0.385888  0  2.323079  0  0  0.385414  0  2.279203  0  0  0.389415  0.387348  0  2.351884  0
Cu  Cu2  1  0.30635368  0.82562897  0.97902325  1  0  0.44694  0  1.914532  0  0  0.349235  0  2.398854  0  0  0.350734  0  2.350189  0  0  0.373663  0.349742  0  2.430813  0
Cu  Cu3  1  0.69364617  0.17436659  0.02098038  1  0  0.446971  0  1.914591  0  0  0.349288  0  2.398909  0  0  0.350808  0  2.350251  0  0  0.373732  0.349792  0  2.430871  0
H  H4  1  0.98058962  0.99878990  0.81023366  1  0  0.103015  0  0.950986  0  0  0.112098  0  1.014257  0  0  0.115988  0  1.011528  0  0  0.110076  0.109118  0  1.016735  0
H  H5  1  0.01934867  0.00121047  0.18977080  1  0  0.10304  0  0.951074  0  0  0.112082  0  1.014363  0  0  0.115967  0  1.011634  0  0  0.110086  0.109104  0  1.016842  0
H  H6  1  0.61399213  0.51803029  0.89102251  1  0  0.094786  0  0.947074  0  0  0.100091  0  1.01987  0  0  0.105404  0  1.01437  0  0  0.108696  0.096001  0  1.024375  0
H  H7  1  0.38601272  0.48197301  0.10898194  1  0  0.094571  0  0.947051  0  0  0.099882  0  1.019872  0  0  0.105198  0  1.014362  0  0  0.108579  0.095793  0  1.024381  0
H  H8  1  0.72148074  0.88782407  0.59544648  1  0  0.12243  0  0.987743  0  0  0.136571  0  1.06166  0  0  0.140226  0  1.058691  0  0  0.084494  0.133869  0  1.063827  0
H  H9  1  0.27853106  0.11218189  0.40455511  1  0  0.122436  0  0.987724  0  0  0.136579  0  1.061651  0  0  0.140235  0  1.058681  0  0  0.084491  0.133877  0  1.063817  0
H  H10  1  0.07797968  0.00955526  0.59010251  1  0  0.139836  0  0.948023  0  0  0.159859  0  1.009914  0  0  0.162943  0  1.008539  0  0  0.091542  0.157508  0  1.011097  0
H  H11  1  0.92203659  0.99044031  0.40990564  1  0  0.139794  0  0.948034  0  0  0.159826  0  1.009929  0  0  0.16291  0  1.008554  0  0  0.091523  0.157478  0  1.011109  0
H  H12  1  0.70390132  0.05890609  0.66334870  1  0  0.125078  0  0.95569  0  0  0.149037  0  1.00933  0  0  0.150003  0  1.010851  0  0  0.089973  0.148291  0  1.008326  0
H  H13  1  0.29610810  0.94109217  0.33665005  1  0  0.125087  0  0.955768  0  0  0.149067  0  1.009378  0  0  0.150036  0  1.010893  0  0  0.089998  0.148321  0  1.008377  0
H  H14  1  0.42383502  0.31014770  0.71654138  1  0  0.128121  0  0.953722  0  0  0.150037  0  1.012492  0  0  0.152023  0  1.012473  0  0  0.091766  0.148484  0  1.01265  0
H  H15  1  0.57619225  0.68985973  0.28345469  1  0  0.128123  0  0.953628  0  0  0.150029  0  1.012421  0  0  0.152018  0  1.012397  0  0  0.091772  0.148477  0  1.012579  0
H  H16  1  0.79494579  0.31765514  0.78916993  1  0  0.125137  0  0.976037  0  0  0.146619  0  1.034369  0  0  0.147485  0  1.036499  0  0  0.08298  0.145865  0  1.03304  0
H  H17  1  0.20507316  0.68234584  0.21082328  1  0  0.12514  0  0.97599  0  0  0.146602  0  1.034349  0  0  0.147467  0  1.03648  0  0  0.082965  0.145849  0  1.03302  0
H  H18  1  0.80301337  0.39907824  0.67262246  1  0  0.122554  0  0.977264  0  0  0.132941  0  1.059634  0  0  0.138361  0  1.053725  0  0  0.08425  0.128877  0  1.064002  0
H  H19  1  0.19698048  0.60093156  0.32737571  1  0  0.122612  0  0.977178  0  0  0.132992  0  1.059549  0  0  0.138412  0  1.053632  0  0  0.084249  0.128927  0  1.06392  0
C  C20  1  0.08604920  0.82813787  0.70756606  1  0  0.278799  0  3.712759  0  0  0.287168  0  3.958502  0  0  0.294746  0  3.974957  0  0  0.114444  0.281814  0  3.947691  0
C  C21  1  0.91392545  0.17187301  0.29243816  1  0  0.278616  0  3.713029  0  0  0.287006  0  3.958667  0  0  0.294567  0  3.975135  0  0  0.114355  0.281654  0  3.947859  0
C  C22  1  0.11142553  0.87249012  0.79342221  1  0  -0.002832  0  3.637965  0  0  -0.041673  0  3.894297  0  0  -0.039652  0  3.905535  0  0  0.026639  -0.043613  0  3.887525  0
C  C23  1  0.88854881  0.12749497  0.20658224  1  0  -0.0027  0  3.637612  0  0  -0.041471  0  3.893875  0  0  -0.039452  0  3.905142  0  0  0.026768  -0.043415  0  3.887113  0
C  C24  1  0.46045617  0.60725830  0.83862148  1  0  -0.002092  0  3.642494  0  0  -0.039004  0  3.89675  0  0  -0.038238  0  3.909629  0  0  0.027585  -0.040052  0  3.888985  0
C  C25  1  0.53955794  0.39272193  0.16137832  1  0  -0.001788  0  3.642365  0  0  -0.03865  0  3.896658  0  0  -0.037887  0  3.909547  0  0  0.027791  -0.039698  0  3.888891  0
C  C26  1  0.44120056  0.55928262  0.75326481  1  0  0.282586  0  3.702195  0  0  0.292368  0  3.944077  0  0  0.300301  0  3.960807  0  0  0.116693  0.286702  0  3.933107  0
C  C27  1  0.55878930  0.44072335  0.24672964  1  0  0.28262  0  3.701942  0  0  0.292274  0  3.943972  0  0  0.300207  0  3.960698  0  0  0.116652  0.286608  0  3.933006  0
C  C28  1  0.88458600  0.95265069  0.63587643  1  0  -0.390705  0  3.705855  0  0  -0.473815  0  3.941139  0  0  -0.478529  0  3.946671  0  0  -0.252335  -0.470272  0  3.937603  0
C  C29  1  0.11541968  0.04734365  0.36412457  1  0  -0.390625  0  3.705785  0  0  -0.47377  0  3.941017  0  0  -0.478483  0  3.946558  0  0  -0.252345  -0.470226  0  3.937476  0
C  C30  1  0.62838146  0.38664441  0.73230367  1  0  -0.389224  0  3.706325  0  0  -0.471818  0  3.940042  0  0  -0.476856  0  3.94562  0  0  -0.253878  -0.467952  0  3.936494  0
C  C31  1  0.37163452  0.61336422  0.26769374  1  0  -0.38926  0  3.706024  0  0  -0.47179  0  3.939733  0  0  -0.476821  0  3.945307  0  0  -0.253844  -0.467921  0  3.936184  0
N  N32  1  0.25250130  0.67007357  0.68677565  1  0  -0.364319  0  3.261222  0  0  -0.304975  0  3.552558  0  0  -0.309562  0  3.553111  0  0  -0.359965  -0.302012  0  3.551549  0
N  N33  1  0.74750377  0.32992857  0.31322157  1  0  -0.364379  0  3.261509  0  0  -0.304977  0  3.552856  0  0  -0.309554  0  3.553403  0  0  -0.359923  -0.302013  0  3.551843  0
N  N34  1  0.29807043  0.76385314  0.85979307  1  0  -0.237114  0  3.452901  0  0  -0.169218  0  3.764712  0  0  -0.168896  0  3.76597  0  0  -0.370292  -0.169517  0  3.76329  0
N  N35  1  0.70190211  0.23614238  0.14020413  1  0  -0.237272  0  3.452953  0  0  -0.169435  0  3.764841  0  0  -0.169114  0  3.766095  0  0  -0.370504  -0.169731  0  3.763424  0
Cl  Cl36  1  0.28531530  0.31362129  0.52970214  1  0  -0.528481  0  1.486825  0  0  -0.447254  0  1.876544  0  0  -0.462283  0  1.839696  0  0  -0.266508  -0.436963  0  1.901686  0
Cl  Cl37  1  0.71470595  0.68638095  0.47029362  1  0  -0.528431  0  1.486845  0  0  -0.4472  0  1.876555  0  0  -0.462234  0  1.839712  0  0  -0.266506  -0.436922  0  1.901728  0
Cl  Cl38  1  0.79737503  0.81552725  0.06837455  1  0  -0.531442  0  1.463804  0  0  -0.454184  0  1.869293  0  0  -0.469651  0  1.829622  0  0  -0.289242  -0.443272  0  1.896336  0
Cl  Cl39  1  0.20261822  0.18447091  0.93162565  1  0  -0.531439  0  1.463642  0  0  -0.454188  0  1.869116  0  0  -0.469664  0  1.829456  0  0  -0.28926  -0.443275  0  1.896155  0
