# generated using pymatgen
data_CuH4C10S4(N2Cl)2
_symmetry_space_group_name_H-M   'P 1'
_cell_length_a   3.76733086
_cell_length_b   7.86225846
_cell_length_c   11.40695030
_cell_angle_alpha   94.50090710
_cell_angle_beta   96.91818771
_cell_angle_gamma   94.87278757
_symmetry_Int_Tables_number   1
_chemical_formula_structural   CuH4C10S4(N2Cl)2
_chemical_formula_sum   'Cu1 H4 C10 S4 N4 Cl2'
_cell_volume   332.85188703
_cell_formula_units_Z   1
loop_
 _symmetry_equiv_pos_site_id
 _symmetry_equiv_pos_as_xyz
  1  'x, y, z'
loop_
 _atom_site_type_symbol
 _atom_site_label
 _atom_site_symmetry_multiplicity
 _atom_site_fract_x
 _atom_site_fract_y
 _atom_site_fract_z
 _atom_site_occupancy
 _atom_site_hle17_ddec_charge
 _atom_site_hle17_ddec_spin_density
 _atom_site_hle17_ddec_sum_bond_order
 _atom_site_hle17_magmom
 _atom_site_hse06_10hf_ddec_charge
 _atom_site_hse06_10hf_ddec_spin_density
 _atom_site_hse06_10hf_ddec_sum_bond_order
 _atom_site_hse06_10hf_magmom
 _atom_site_hse06_ddec_charge
 _atom_site_hse06_ddec_spin_density
 _atom_site_hse06_ddec_sum_bond_order
 _atom_site_hse06_magmom
 _atom_site_pbe_cm5_charge
 _atom_site_pbe_ddec_charge
 _atom_site_pbe_ddec_spin_density
 _atom_site_pbe_ddec_sum_bond_order
 _atom_site_pbe_magmom
Cu  Cu0  1  0.00001960  0.99999730  0.00000149  1  0.689169  -0.529185  1.901215  -0.367  0.711213  -0.713307  2.273767  -0.553  0.81445  -0.798696  2.193487  -0.656  0.53156  0.64426  -0.631325  2.329048  -0.466
H  H1  1  0.90172812  0.35760578  0.03235610  1  0.098696  -0.000207  0.972661  0.0  0.10352  -0.001149  1.040205  -0.001  0.105643  -0.000831  1.038379  -0.001  0.10519  0.102238  -0.001191  1.04099  -0.001
H  H2  1  0.09829223  0.64238762  0.96764165  1  0.098828  -0.000205  0.972473  0.0  0.103566  -0.001149  1.040107  -0.001  0.105688  -0.000831  1.038281  -0.001  0.105181  0.102284  -0.001191  1.040892  -0.001
H  H3  1  0.90781681  0.59833694  0.19203841  1  0.094988  6.8e-05  0.983044  0.0  0.099758  -0.00107  1.049374  -0.001  0.103836  -0.000789  1.045447  0.0  0.096246  0.097414  -0.001062  1.051889  -0.001
H  H4  1  0.09214477  0.40165698  0.80795689  1  0.094956  6.2e-05  0.983143  0.0  0.099728  -0.00107  1.049459  -0.001  0.103807  -0.000788  1.045532  0.0  0.096227  0.097391  -0.001062  1.051982  -0.001
C  C5  1  0.16003916  0.15826839  0.26401973  1  0.113071  0.007106  3.731677  0.006  0.117722  0.000785  3.997614  0.001  0.127678  0.002592  4.01597  0.002  0.12133  0.110076  -0.000381  3.985872  0.0
C  C6  1  0.83996881  0.84173238  0.73598071  1  0.113064  0.007118  3.731628  0.006  0.117671  0.000782  3.997648  0.001  0.127628  0.00259  4.016005  0.002  0.121304  0.110024  -0.000381  3.985905  0.0
C  C7  1  0.18251709  0.29886946  0.35260330  1  0.101701  -0.004418  3.805515  -0.004  0.109566  -0.003655  4.071188  -0.004  0.114687  -0.003058  4.085901  -0.004  0.121001  0.103908  -0.00335  4.063332  -0.003
C  C8  1  0.81747742  0.70113105  0.64739830  1  0.101726  -0.004398  3.805685  -0.004  0.109587  -0.003655  4.071381  -0.004  0.114702  -0.003057  4.086105  -0.004  0.121039  0.103931  -0.003348  4.063521  -0.003
C  C9  1  0.41456766  0.04823466  0.46005384  1  -0.123613  -0.028026  3.825332  -0.023  -0.121917  -0.002047  4.136763  -0.002  -0.121139  0.000123  4.157799  0.0  -0.044362  -0.119641  -0.011104  4.117487  -0.009
C  C10  1  0.58543607  0.95177378  0.53994613  1  -0.123459  -0.028084  3.825242  -0.024  -0.121854  -0.002048  4.136775  -0.002  -0.121077  0.00012  4.15781  0.0  -0.044329  -0.119578  -0.011105  4.117497  -0.009
C  C11  1  0.98027071  0.34086397  0.12519386  1  0.080786  -0.006179  3.64691  -0.004  0.033905  0.00123  3.932898  0.001  0.038269  0.003698  3.954106  0.003  0.029953  0.036519  -0.004816  3.911293  -0.003
C  C12  1  0.01973700  0.65913442  0.87480287  1  0.080459  -0.006201  3.647103  -0.004  0.03364  0.001234  3.933145  0.001  0.038004  0.003691  3.954354  0.003  0.029876  0.036253  -0.004817  3.911543  -0.003
C  C13  1  0.98677915  0.47291087  0.21364730  1  0.074912  -0.01703  3.673286  -0.014  0.043108  -0.006102  3.950563  -0.006  0.043982  -0.004341  3.96545  -0.005  0.032801  0.044626  -0.008447  3.935361  -0.007
C  C14  1  0.01319047  0.52708416  0.78635369  1  0.07506  -0.017014  3.673516  -0.014  0.043272  -0.006104  3.950688  -0.006  0.044146  -0.004339  3.965575  -0.005  0.032866  0.044775  -0.008448  3.9355  -0.007
S  S15  1  0.33963259  0.26077444  0.49735663  1  0.149463  -0.030656  2.59144  -0.029  0.116013  -0.004772  2.960818  -0.005  0.110708  -0.001646  2.964579  -0.002  0.093825  0.121422  -0.013987  2.958265  -0.014
S  S16  1  0.66035816  0.73923747  0.50264657  1  0.149356  -0.030649  2.591638  -0.029  0.11596  -0.00477  2.961006  -0.005  0.11066  -0.001645  2.964761  -0.002  0.09381  0.121372  -0.013982  2.958445  -0.014
S  S17  1  0.25645243  0.96240226  0.31466728  1  0.167928  -0.032571  2.65223  -0.032  0.137662  -0.004284  3.015305  -0.005  0.132079  -0.000698  3.017115  -0.002  0.094347  0.145818  -0.015295  3.013022  -0.016
S  S18  1  0.74356933  0.03760230  0.68533842  1  0.167827  -0.032572  2.652217  -0.032  0.137614  -0.004282  3.015309  -0.005  0.13203  -0.000698  3.017128  -0.002  0.09432  0.145775  -0.015292  3.013012  -0.016
N  N19  1  0.06230399  0.18178136  0.15007313  1  -0.261566  -0.047679  3.268631  -0.057  -0.224497  -0.05454  3.561303  -0.072  -0.254858  -0.046013  3.588424  -0.066  -0.320208  -0.205662  -0.053045  3.541522  -0.065
N  N20  1  0.93772002  0.81821958  0.84992887  1  -0.261475  -0.047671  3.268643  -0.057  -0.224381  -0.054541  3.561253  -0.072  -0.254742  -0.046013  3.588379  -0.066  -0.320163  -0.205545  -0.053046  3.541473  -0.065
N  N21  1  0.08962641  0.45220620  0.32858738  1  -0.278993  -6.1e-05  3.097088  0.0  -0.251684  0.0011  3.372631  0.001  -0.256507  0.003087  3.385136  0.002  -0.307837  -0.247066  -0.002581  3.363664  -0.003
N  N22  1  0.91034662  0.54779298  0.67140882  1  -0.278972  -8.5e-05  3.097249  0.0  -0.251672  0.001099  3.372791  0.001  -0.256491  0.003087  3.385297  0.002  -0.307839  -0.247053  -0.002581  3.363826  -0.003
Cl  Cl23  1  0.62399749  0.82997728  0.09069369  1  -0.561959  -0.07573  1.181491  -0.086  -0.518738  -0.068839  1.48465  -0.088  -0.55158  -0.052771  1.460908  -0.074  -0.288065  -0.511756  -0.069068  1.507098  -0.08
Cl  Cl24  1  0.37600332  0.17002874  0.90930246  1  -0.561954  -0.075735  1.1815  -0.086  -0.518762  -0.068845  1.484679  -0.088  -0.551602  -0.052775  1.460932  -0.074  -0.288072  -0.511785  -0.069073  1.507128  -0.08
