# generated using pymatgen
data_AgH6C4S(NO)3
_symmetry_space_group_name_H-M   'P 1'
_cell_length_a   6.83839242
_cell_length_b   7.80012021
_cell_length_c   8.67785193
_cell_angle_alpha   99.62998541
_cell_angle_beta   98.70979820
_cell_angle_gamma   116.63756097
_symmetry_Int_Tables_number   1
_chemical_formula_structural   AgH6C4S(NO)3
_chemical_formula_sum   'Ag2 H12 C8 S2 N6 O6'
_cell_volume   394.22423531
_cell_formula_units_Z   2
loop_
 _symmetry_equiv_pos_site_id
 _symmetry_equiv_pos_as_xyz
  1  'x, y, z'
loop_
 _atom_site_type_symbol
 _atom_site_label
 _atom_site_symmetry_multiplicity
 _atom_site_fract_x
 _atom_site_fract_y
 _atom_site_fract_z
 _atom_site_occupancy
 _atom_site_pbe_bader_spin_density
 _atom_site_pbe_cm5_charge
 _atom_site_pbe_ddec_charge
 _atom_site_pbe_ddec_spin_density
 _atom_site_pbe_ddec_sum_bond_order
 _atom_site_pbe_magmom
Ag  Ag0  1  0.52398000  0.52098418  0.81534913  1  0  0.462566  0.35422  0  1.915463  0
Ag  Ag1  1  0.47603006  0.47902003  0.18465208  1  0  0.462561  0.354177  0  1.915515  0
H  H2  1  0.75704355  0.12597185  0.61657010  1  0  0.104196  0.169501  0  1.010784  0
H  H3  1  0.24295435  0.87402627  0.38342767  1  0  0.104211  0.169525  0  1.01074  0
H  H4  1  0.02611490  0.33387911  0.71212619  1  0  0.092258  0.141636  0  1.038699  0
H  H5  1  0.97388302  0.66611901  0.28787273  1  0  0.092273  0.141664  0  1.038704  0
H  H6  1  0.79136686  0.37219033  0.64615305  1  0  0.099016  0.152244  0  1.026234  0
H  H7  1  0.20863338  0.62780932  0.35384868  1  0  0.09901  0.152265  0  1.026202  0
H  H8  1  0.88694932  0.28668619  0.36928690  1  0  0.108357  0.173161  0  0.990274  0
H  H9  1  0.11304781  0.71331046  0.63071287  1  0  0.108319  0.173097  0  0.990256  0
H  H10  1  0.71838865  0.02942737  0.27281345  1  0  0.100639  0.163035  0  1.000341  0
H  H11  1  0.28160999  0.97056931  0.72718765  1  0  0.100641  0.163047  0  1.000351  0
H  H12  1  0.58615315  0.17855961  0.31615579  1  0  0.102296  0.159263  0  1.010725  0
H  H13  1  0.41384241  0.82143408  0.68384566  1  0  0.102304  0.159314  0  1.010753  0
C  C14  1  0.73662208  0.22244752  0.11987257  1  0  0.136914  0.230053  0  3.967342  0
C  C15  1  0.26337656  0.77754916  0.88012853  1  0  0.136924  0.23008  0  3.96725  0
C  C16  1  0.84396361  0.27660201  0.69932654  1  0  -0.244683  -0.444095  0  3.908176  0
C  C17  1  0.15603502  0.72339466  0.30067340  1  0  -0.244701  -0.444154  0  3.908151  0
C  C18  1  0.78906309  0.26979668  0.85713694  1  0  0.139018  0.238539  0  3.951218  0
C  C19  1  0.21093323  0.73019846  0.14286136  1  0  0.139031  0.238563  0  3.951203  0
C  C20  1  0.73026252  0.17517227  0.27791371  1  0  -0.241306  -0.444562  0  3.890477  0
C  C21  1  0.26974598  0.82482898  0.72208919  1  0  -0.241256  -0.444554  0  3.890506  0
S  S22  1  0.86598042  0.15180110  0.98602425  1  0  0.153141  0.124997  0  2.819641  0
S  S23  1  0.13401580  0.84819111  0.01397476  1  0  0.153136  0.124977  0  2.819778  0
N  N24  1  0.27576648  0.26614817  0.46013661  1  0  0.091942  0.70395  0  4.422436  0
N  N25  1  0.72423406  0.73386032  0.53986416  1  0  0.091887  0.704106  0  4.422255  0
N  N26  1  0.64462546  0.32424445  0.06519861  1  0  -0.254723  -0.194603  0  3.557872  0
N  N27  1  0.35537683  0.67575080  0.93480154  1  0  -0.25476  -0.19464  0  3.557807  0
N  N28  1  0.67614434  0.35264746  0.91668820  1  0  -0.254922  -0.189916  0  3.578046  0
N  N29  1  0.32385348  0.64734772  0.08331143  1  0  -0.254937  -0.189951  0  3.577974  0
O  O30  1  0.27173825  0.42189044  0.52968028  1  0  -0.198899  -0.441333  0  2.053077  0
O  O31  1  0.72826082  0.57811804  0.47032146  1  0  -0.198802  -0.441332  0  2.053008  0
O  O32  1  0.22729785  0.21145322  0.30598483  1  0  -0.217019  -0.477228  0  2.092743  0
O  O33  1  0.77270587  0.78856122  0.69401603  1  0  -0.217014  -0.477282  0  2.092659  0
O  O34  1  0.32859441  0.16854843  0.54330904  1  0  -0.178798  -0.418847  0  1.995334  0
O  O35  1  0.67141057  0.83146011  0.45668992  1  0  -0.178821  -0.418917  0  1.995364  0
