# generated using pymatgen
data_CdH8C4(BrN)2
_symmetry_space_group_name_H-M   'P 1'
_cell_length_a   7.79533798
_cell_length_b   7.60285258
_cell_length_c   7.58198361
_cell_angle_alpha   109.54530775
_cell_angle_beta   90.35642531
_cell_angle_gamma   90.31965193
_symmetry_Int_Tables_number   1
_chemical_formula_structural   CdH8C4(BrN)2
_chemical_formula_sum   'Cd2 H16 C8 Br4 N4'
_cell_volume   423.44439976
_cell_formula_units_Z   2
loop_
 _symmetry_equiv_pos_site_id
 _symmetry_equiv_pos_as_xyz
  1  'x, y, z'
loop_
 _atom_site_type_symbol
 _atom_site_label
 _atom_site_symmetry_multiplicity
 _atom_site_fract_x
 _atom_site_fract_y
 _atom_site_fract_z
 _atom_site_occupancy
 _atom_site_pbe_bader_charge
 _atom_site_pbe_bader_spin_density
 _atom_site_pbe_cm5_charge
 _atom_site_pbe_ddec_charge
 _atom_site_pbe_ddec_spin_density
 _atom_site_pbe_ddec_sum_bond_order
 _atom_site_pbe_magmom
Cd  Cd0  1  0.74668368  0.06670025  0.91380831  1  1.052084  0  0.54397  0.660602  0  2.364971  0
Cd  Cd1  1  0.24643371  0.91378960  0.06687682  1  1.051988  0  0.544388  0.660862  0  2.363304  0
H  H2  1  0.91205071  0.56019813  0.79846198  1  0.079989  0  0.08813  0.081161  0  1.038379  0
H  H3  1  0.60092727  0.22469785  0.44137191  1  0.134841  0  0.095887  0.102208  0  1.040664  0
H  H4  1  0.10267134  0.44109900  0.22410383  1  0.128928  0  0.09585  0.102731  0  1.040281  0
H  H5  1  0.41468057  0.79715056  0.55907114  1  0.085108  0  0.088273  0.081117  0  1.037159  0
H  H6  1  0.95389356  0.31702833  0.68582308  1  0.088532  0  0.098752  0.088175  0  1.006958  0
H  H7  1  0.62556312  0.35264836  0.69982541  1  0.09504  0  0.103533  0.109065  0  1.036379  0
H  H8  1  0.12746567  0.69863949  0.35324127  1  0.116584  0  0.103746  0.109897  0  1.036383  0
H  H9  1  0.45577898  0.68683878  0.31477057  1  0.082401  0  0.098852  0.088403  0  1.005628  0
H  H10  1  0.22165253  0.48577787  0.78860042  1  0.080314  0  0.099278  0.091988  0  0.985602  0
H  H11  1  0.19768161  0.18512181  0.48742479  1  0.115216  0  0.098866  0.108548  0  1.026738  0
H  H12  1  0.69966781  0.48463370  0.18781057  1  0.096824  0  0.099215  0.107933  0  1.026196  0
H  H13  1  0.72376961  0.79049482  0.48365259  1  0.068225  0  0.099203  0.092239  0  0.986343  0
H  H14  1  0.18499091  0.32828893  0.91562254  1  0.093008  0  0.089113  0.079802  0  1.04371  0
H  H15  1  0.30992144  0.10232933  0.66561086  1  0.080904  0  0.100388  0.10149  0  1.038314  0
H  H16  1  0.80910707  0.66392604  0.10502944  1  0.098377  0  0.100552  0.101361  0  1.036899  0
H  H17  1  0.68502341  0.91777914  0.32665179  1  0.085495  0  0.088795  0.079671  0  1.045885  0
C  C18  1  0.95446911  0.43127915  0.82078817  1  0.257564  0  -0.072626  -0.068099  0  3.904132  0
C  C19  1  0.62628068  0.22077528  0.58269810  1  0.609595  0  0.012902  -0.019665  0  3.749657  0
C  C20  1  0.12740852  0.58228773  0.22069526  1  0.585022  0  0.012292  -0.020622  0  3.748764  0
C  C21  1  0.45589832  0.82085582  0.43013905  1  0.261803  0  -0.072579  -0.067693  0  3.903093  0
C  C22  1  0.14113035  0.45696967  0.89436451  1  0.247129  0  -0.072943  -0.064041  0  3.902836  0
C  C23  1  0.28185073  0.08465567  0.51902600  1  0.648147  0  0.002718  -0.030506  0  3.791843  0
C  C24  1  0.78221329  0.51739352  0.08666230  1  0.627754  0  0.003494  -0.029035  0  3.792858  0
C  C25  1  0.64214594  0.89566189  0.45560763  1  0.255412  0  -0.072882  -0.065548  0  3.905699  0
Br  Br26  1  0.44210001  0.23333176  0.10593480  1  -0.5903  0  -0.253997  -0.458202  0  1.381286  0
Br  Br27  1  0.04623861  0.87599035  0.74108771  1  -0.585599  0  -0.249656  -0.437191  0  1.321149  0
Br  Br28  1  0.54685066  0.74164144  0.87667537  1  -0.587  0  -0.250751  -0.438365  0  1.316986  0
Br  Br29  1  0.94279414  0.10790039  0.23427419  1  -0.589824  0  -0.253622  -0.45822  0  1.383223  0
N  N30  1  0.84083065  0.38270619  0.94961018  1  -1.193373  0  -0.34392  -0.179522  0  3.476965  0
N  N31  1  0.65566514  0.06822543  0.61371296  1  -1.184289  0  -0.34061  -0.164877  0  3.482959  0
N  N32  1  0.15543438  0.61412038  0.06792102  1  -1.182194  0  -0.3406  -0.166379  0  3.478077  0
N  N33  1  0.34073597  0.94905313  0.38303638  1  -1.213702  0  -0.344009  -0.179285  0  3.479347  0
