# generated using pymatgen
data_Cu3H4(CO)10
_symmetry_space_group_name_H-M   'P 1'
_cell_length_a   5.03034418
_cell_length_b   5.86270803
_cell_length_c   9.69884027
_cell_angle_alpha   98.36829573
_cell_angle_beta   91.28494401
_cell_angle_gamma   95.40398760
_symmetry_Int_Tables_number   1
_chemical_formula_structural   Cu3H4(CO)10
_chemical_formula_sum   'Cu3 H4 C10 O10'
_cell_volume   281.53999596
_cell_formula_units_Z   1
loop_
 _symmetry_equiv_pos_site_id
 _symmetry_equiv_pos_as_xyz
  1  'x, y, z'
loop_
 _atom_site_type_symbol
 _atom_site_label
 _atom_site_symmetry_multiplicity
 _atom_site_fract_x
 _atom_site_fract_y
 _atom_site_fract_z
 _atom_site_occupancy
 _atom_site_hle17_ddec_charge
 _atom_site_hle17_ddec_spin_density
 _atom_site_hle17_ddec_sum_bond_order
 _atom_site_hle17_magmom
 _atom_site_hse06_10hf_ddec_charge
 _atom_site_hse06_10hf_ddec_spin_density
 _atom_site_hse06_10hf_ddec_sum_bond_order
 _atom_site_hse06_10hf_magmom
 _atom_site_hse06_ddec_charge
 _atom_site_hse06_ddec_spin_density
 _atom_site_hse06_ddec_sum_bond_order
 _atom_site_hse06_magmom
 _atom_site_pbe_cm5_charge
 _atom_site_pbe_ddec_charge
 _atom_site_pbe_ddec_spin_density
 _atom_site_pbe_ddec_sum_bond_order
 _atom_site_pbe_magmom
Cu  Cu0  1  0.99999976  0.49999950  0.00000074  1  1.079004  0.700145  1.603279  0.533  1.098595  0.799236  1.974417  0.661  1.182512  0.85789  1.91973  0.744  0.710739  1.035913  0.756252  2.028141  0.606
Cu  Cu1  1  0.18570456  0.04113142  0.12542878  1  1.04824  0.68943  1.630683  0.524  1.06407  0.788473  2.008087  0.651  1.157447  0.847525  1.939621  0.734  0.705413  0.994338  0.747935  2.071922  0.599
Cu  Cu2  1  0.81429588  0.95886755  0.87457155  1  1.048241  0.689436  1.630695  0.524  1.064101  0.788475  2.008099  0.651  1.157491  0.847532  1.939593  0.734  0.705413  0.994349  0.747939  2.071944  0.599
H  H3  1  0.22178194  0.83018200  0.54847851  1  0.124159  0.000245  0.919028  0.0  0.134977  0.000451  0.975437  0.0  0.138644  0.000301  0.973275  0.0  0.114854  0.132104  0.000619  0.977439  0.0
H  H4  1  0.77821848  0.16981697  0.45152285  1  0.124137  0.000247  0.919045  0.0  0.134963  0.000451  0.975458  0.0  0.138631  0.000301  0.973297  0.0  0.11484  0.132094  0.000619  0.97746  0.0
H  H5  1  0.71678989  0.79138434  0.09362266  1  0.430651  -0.001552  0.870854  -0.003  0.409849  0.000584  0.926601  0.0  0.422905  -4e-06  0.908526  -0.001  0.291274  0.40073  0.001104  0.939148  0.001
H  H6  1  0.28321255  0.20861466  0.90637667  1  0.430751  -0.001554  0.870802  -0.003  0.409915  0.000584  0.926531  0.0  0.42297  -5e-06  0.908461  -0.001  0.291303  0.400798  0.001103  0.939076  0.001
C  C7  1  0.35299286  0.74664734  0.27728075  1  0.652088  -0.011707  3.877839  -0.01  0.607174  -0.004316  4.175759  -0.005  0.645708  -0.004508  4.168196  -0.004  0.206749  0.580673  -0.003743  4.179501  -0.005
C  C8  1  0.64700797  0.25335511  0.72271784  1  0.652107  -0.011708  3.877695  -0.01  0.607186  -0.004317  4.175607  -0.005  0.645721  -0.004506  4.168043  -0.004  0.206739  0.58069  -0.003743  4.179353  -0.005
C  C9  1  0.67623424  0.35647277  0.22040488  1  0.685751  -0.013355  3.839092  -0.012  0.646907  -2.1e-05  4.140866  -0.001  0.691447  -0.000741  4.126621  -0.001  0.227238  0.616415  0.001407  4.147355  -0.001
C  C10  1  0.32376458  0.64352966  0.77959470  1  0.685654  -0.013354  3.839268  -0.012  0.646814  -2.1e-05  4.141047  -0.001  0.691352  -0.00074  4.126801  -0.001  0.227182  0.616321  0.001408  4.147539  -0.001
C  C11  1  0.42589956  0.62002431  0.39283247  1  -0.048762  0.005545  3.697065  0.006  -0.034578  0.004868  3.931507  0.006  -0.040672  0.00312  3.951938  0.004  -0.003422  -0.031385  0.00689  3.918875  0.007
C  C12  1  0.57410089  0.37997466  0.60716683  1  -0.048826  0.005537  3.697137  0.006  -0.0346  0.004867  3.93155  0.006  -0.040695  0.003119  3.95198  0.004  -0.003421  -0.03142  0.00689  3.918942  0.007
C  C13  1  0.58154403  0.43224911  0.36411804  1  -0.037882  0.012672  3.68817  0.014  -0.032796  0.005087  3.929538  0.006  -0.038913  0.002589  3.949967  0.004  0.001214  -0.029078  0.007975  3.916017  0.009
C  C14  1  0.41845462  0.56775159  0.63588139  1  -0.037905  0.012681  3.688281  0.014  -0.032818  0.005088  3.929603  0.006  -0.038936  0.002589  3.950031  0.004  0.001145  -0.0291  0.007975  3.916089  0.009
C  C15  1  0.34436681  0.68587643  0.52847867  1  -0.054445  0.005634  3.652314  0.005  -0.089612  0.002259  3.903993  0.002  -0.088543  0.00101  3.922257  0.001  -0.0678  -0.08996  0.002974  3.892382  0.002
C  C16  1  0.65563165  0.31412253  0.47152060  1  -0.05434  0.00564  3.652252  0.005  -0.089551  0.002259  3.903962  0.002  -0.088481  0.001009  3.922221  0.001  -0.067769  -0.089898  0.002974  3.892358  0.002
O  O17  1  0.21513845  0.92084195  0.30348527  1  -0.58304  0.095031  1.997175  0.132  -0.559732  0.06011  2.266784  0.091  -0.603622  0.043163  2.258956  0.071  -0.317027  -0.529134  0.070704  2.272556  0.101
O  O18  1  0.78486414  0.07915876  0.69651629  1  -0.583052  0.09503  1.997146  0.132  -0.559737  0.060111  2.266765  0.091  -0.603628  0.043163  2.258931  0.071  -0.317026  -0.529135  0.070703  2.27254  0.101
O  O19  1  0.43213562  0.67861829  0.15611195  1  -0.642444  0.000745  2.073619  0.006  -0.604447  -0.000982  2.329049  0.003  -0.632038  -0.0029  2.313833  0.0  -0.307191  -0.583066  0.001457  2.337855  0.005
O  O20  1  0.56786553  0.32138761  0.84388902  1  -0.642429  0.000745  2.07345  0.006  -0.604462  -0.000982  2.328945  0.003  -0.632053  -0.002899  2.313727  0.0  -0.307162  -0.58307  0.001458  2.337734  0.005
O  O21  1  0.90687280  0.44625349  0.19254698  1  -0.606688  0.085832  2.097781  0.121  -0.591575  0.054296  2.390479  0.083  -0.635497  0.037276  2.378911  0.063  -0.310361  -0.558499  0.066423  2.39641  0.095
O  O22  1  0.09312602  0.55374894  0.80745261  1  -0.606652  0.085836  2.097825  0.121  -0.591542  0.054297  2.390535  0.083  -0.635464  0.037277  2.378968  0.063  -0.310315  -0.558461  0.066423  2.396466  0.095
O  O23  1  0.54799280  0.19357997  0.13763421  1  -0.594662  0.078702  2.161273  0.112  -0.58343  0.051482  2.474251  0.08  -0.627202  0.036066  2.459356  0.062  -0.311373  -0.550678  0.062721  2.482706  0.092
O  O24  1  0.45200586  0.80642074  0.86236419  1  -0.594604  0.078699  2.161347  0.112  -0.583393  0.05148  2.474327  0.08  -0.627166  0.036063  2.459424  0.062  -0.311353  -0.550637  0.06272  2.48278  0.092
O  O25  1  0.88521167  0.81285767  0.04184843  1  -0.912416  0.202706  2.069712  0.28  -0.916094  0.138091  2.414178  0.203  -0.98091  0.108154  2.379884  0.172  -0.584922  -0.870406  0.155406  2.439059  0.218
O  O26  1  0.11478880  0.18714131  0.95814984  1  -0.912634  0.202693  2.069709  0.28  -0.916184  0.138093  2.414164  0.203  -0.981006  0.108156  2.379866  0.172  -0.584961  -0.870497  0.155411  2.439047  0.218
