# generated using pymatgen
data_ZnH8C6(NCl)2
_symmetry_space_group_name_H-M   'P 1'
_cell_length_a   4.71091743
_cell_length_b   6.00381436
_cell_length_c   15.92870914
_cell_angle_alpha   81.43683217
_cell_angle_beta   83.85803798
_cell_angle_gamma   70.84343250
_symmetry_Int_Tables_number   1
_chemical_formula_structural   ZnH8C6(NCl)2
_chemical_formula_sum   'Zn2 H16 C12 N4 Cl4'
_cell_volume   420.01206544
_cell_formula_units_Z   2
loop_
 _symmetry_equiv_pos_site_id
 _symmetry_equiv_pos_as_xyz
  1  'x, y, z'
loop_
 _atom_site_type_symbol
 _atom_site_label
 _atom_site_symmetry_multiplicity
 _atom_site_fract_x
 _atom_site_fract_y
 _atom_site_fract_z
 _atom_site_occupancy
 _atom_site_pbe_bader_spin_density
 _atom_site_pbe_cm5_charge
 _atom_site_pbe_ddec_charge
 _atom_site_pbe_ddec_spin_density
 _atom_site_pbe_ddec_sum_bond_order
 _atom_site_pbe_magmom
Zn  Zn0  1  0.96500076  0.68430135  0.74543819  1  0  0.560077  0.70987  0  2.500716  0
Zn  Zn1  1  0.03499538  0.31571786  0.25455844  1  0  0.560089  0.709841  0  2.50075  0
H  H2  1  0.81446652  0.33322519  0.82643283  1  0  0.275841  0.288318  0  0.983416  0
H  H3  1  0.53588562  0.01875014  0.67526599  1  0  0.274294  0.286616  0  0.98731  0
H  H4  1  0.18558373  0.66677588  0.17356833  1  0  0.275857  0.28836  0  0.983279  0
H  H5  1  0.46406845  0.98123210  0.32473715  1  0  0.274288  0.286587  0  0.987353  0
H  H6  1  0.54176105  0.58800985  0.84264130  1  0  0.277859  0.276728  0  0.998528  0
H  H7  1  0.56059431  0.76411404  0.64080853  1  0  0.276778  0.27996  0  0.992839  0
H  H8  1  0.45826964  0.41197638  0.15736311  1  0  0.277876  0.276652  0  0.998701  0
H  H9  1  0.43939196  0.23586379  0.35919704  1  0  0.276792  0.279913  0  0.992851  0
H  H10  1  0.28589364  0.20380982  0.90265944  1  0  0.09412  0.1154  0  1.02724  0
H  H11  1  0.97259742  0.19277884  0.62953166  1  0  0.087056  0.10539  0  1.050684  0
H  H12  1  0.71415417  0.79620004  0.09733747  1  0  0.094081  0.115362  0  1.027108  0
H  H13  1  0.02734696  0.80723527  0.37046307  1  0  0.087035  0.105336  0  1.050657  0
H  H14  1  0.50659230  0.79152629  0.96055952  1  0  0.101185  0.11631  0  1.0103  0
H  H15  1  0.74938993  0.69354464  0.50121798  1  0  0.102136  0.118462  0  0.999318  0
H  H16  1  0.49347134  0.20846436  0.03944193  1  0  0.101103  0.116124  0  1.010415  0
H  H17  1  0.25054068  0.30647279  0.49878052  1  0  0.102079  0.118195  0  0.999149  0
C  C18  1  0.88324677  0.49730612  0.92330354  1  0  0.066835  0.24317  0  4.026423  0
C  C19  1  0.84110983  0.93710364  0.57388054  1  0  0.067978  0.243818  0  4.016496  0
C  C20  1  0.11680184  0.50269665  0.07669619  1  0  0.066776  0.242833  0  4.026776  0
C  C21  1  0.15882222  0.06291387  0.42611869  1  0  0.068109  0.243613  0  4.017024  0
C  C22  1  0.16094179  0.33354549  0.94544612  1  0  -0.103202  -0.173335  0  3.973437  0
C  C23  1  0.98233025  0.10936074  0.57259148  1  0  -0.107364  -0.173361  0  3.983766  0
C  C24  1  0.83911842  0.66643958  0.05455266  1  0  -0.103106  -0.173065  0  3.973997  0
C  C25  1  0.01761772  0.89066263  0.42740844  1  0  -0.107329  -0.173079  0  3.98394  0
C  C26  1  0.72341508  0.66429403  0.97786159  1  0  -0.097734  -0.158653  0  3.983321  0
C  C27  1  0.86017405  0.82715444  0.50121203  1  0  -0.09712  -0.159541  0  3.972138  0
C  C28  1  0.27664734  0.33570739  0.02214019  1  0  -0.097585  -0.158201  0  3.982505  0
C  C29  1  0.13976668  0.17283793  0.49878171  1  0  -0.097033  -0.158895  0  3.972194  0
N  N30  1  0.77003382  0.50218025  0.84245780  1  0  -0.60594  -0.575056  0  3.45021  0
N  N31  1  0.68331807  0.87037656  0.65101033  1  0  -0.609183  -0.575475  0  3.452181  0
N  N32  1  0.23000860  0.49781534  0.15754765  1  0  -0.605923  -0.574879  0  3.449788  0
N  N33  1  0.31665739  0.12962236  0.34898897  1  0  -0.609261  -0.575403  0  3.451878  0
Cl  Cl34  1  0.37588236  0.43678600  0.68266362  1  0  -0.280997  -0.477468  0  1.273561  0
Cl  Cl35  1  0.11107212  0.94138258  0.80771468  1  0  -0.282736  -0.491513  0  1.279584  0
Cl  Cl36  1  0.62410422  0.56321498  0.31733425  1  0  -0.28101  -0.477445  0  1.273541  0
Cl  Cl37  1  0.88894293  0.05862639  0.19228317  1  0  -0.282722  -0.491488  0  1.279677  0
