# generated using pymatgen
data_KH3C3(N5O)2
_symmetry_space_group_name_H-M   'P 1'
_cell_length_a   5.46234497
_cell_length_b   7.79588894
_cell_length_c   11.51138539
_cell_angle_alpha   96.20929713
_cell_angle_beta   103.18682582
_cell_angle_gamma   108.94560025
_symmetry_Int_Tables_number   1
_chemical_formula_structural   KH3C3(N5O)2
_chemical_formula_sum   'K2 H6 C6 N20 O4'
_cell_volume   442.49149603
_cell_formula_units_Z   2
loop_
 _symmetry_equiv_pos_site_id
 _symmetry_equiv_pos_as_xyz
  1  'x, y, z'
loop_
 _atom_site_type_symbol
 _atom_site_label
 _atom_site_symmetry_multiplicity
 _atom_site_fract_x
 _atom_site_fract_y
 _atom_site_fract_z
 _atom_site_occupancy
 _atom_site_hle17_bader_spin_density
 _atom_site_hle17_ddec_charge
 _atom_site_hle17_ddec_spin_density
 _atom_site_hle17_ddec_sum_bond_order
 _atom_site_hle17_magmom
 _atom_site_hse06_10hf_bader_spin_density
 _atom_site_hse06_10hf_ddec_charge
 _atom_site_hse06_10hf_ddec_spin_density
 _atom_site_hse06_10hf_ddec_sum_bond_order
 _atom_site_hse06_10hf_magmom
 _atom_site_hse06_bader_spin_density
 _atom_site_hse06_ddec_charge
 _atom_site_hse06_ddec_spin_density
 _atom_site_hse06_ddec_sum_bond_order
 _atom_site_hse06_magmom
 _atom_site_pbe_bader_spin_density
 _atom_site_pbe_cm5_charge
 _atom_site_pbe_ddec_charge
 _atom_site_pbe_ddec_spin_density
 _atom_site_pbe_ddec_sum_bond_order
 _atom_site_pbe_magmom
K  K0  1  0.84540366  0.65897832  0.07851033  1  0  0.890824  0  0.479558  0  0  0.812761  0  0.69756  0  0  0.828845  0  0.673509  0  0  0.796625  0.800923  0  0.714503  0
K  K1  1  0.15459036  0.34101646  0.92148832  1  0  0.890833  0  0.479535  0  0  0.812766  0  0.697542  0  0  0.828854  0  0.673482  0  0  0.796638  0.80094  0  0.714485  0
H  H2  1  0.56066723  0.99173577  0.39362548  1  0  0.304654  0  0.915562  0  0  0.266831  0  1.011875  0  0  0.277545  0  1.001167  0  0  0.321365  0.25925  0  1.019366  0
H  H3  1  0.43933346  0.00826454  0.60637432  1  0  0.304673  0  0.915544  0  0  0.266851  0  1.011854  0  0  0.277565  0  1.001145  0  0  0.321363  0.259272  0  1.019345  0
H  H4  1  0.44529727  0.69448688  0.19538858  1  0  0.396211  0  0.920145  0  0  0.365399  0  0.985606  0  0  0.375864  0  0.970448  0  0  0.277261  0.358115  0  0.996124  0
H  H5  1  0.55469964  0.30551340  0.80461255  1  0  0.396168  0  0.920201  0  0  0.365341  0  0.985688  0  0  0.375807  0  0.97053  0  0  0.27723  0.35806  0  0.996203  0
H  H6  1  0.32426481  0.48935095  0.21529445  1  0  0.398884  0  0.910829  0  0  0.361931  0  0.986392  0  0  0.37245  0  0.971063  0  0  0.278674  0.354547  0  0.997119  0
H  H7  1  0.67573515  0.51064796  0.78470603  1  0  0.39887  0  0.91086  0  0  0.361917  0  0.986422  0  0  0.372437  0  0.971092  0  0  0.278663  0.354535  0  0.997149  0
C  C8  1  0.28368317  0.27576698  0.41784452  1  0  0.449014  0  3.856801  0  0  0.410378  0  4.169477  0  0  0.429963  0  4.178177  0  0  0.320011  0.397216  0  4.163494  0
C  C9  1  0.71631826  0.72423474  0.58215375  1  0  0.448876  0  3.856909  0  0  0.410361  0  4.169434  0  0  0.429946  0  4.178133  0  0  0.320019  0.397193  0  4.163458  0
C  C10  1  0.47948724  0.19552379  0.29520170  1  0  0.312423  0  3.781098  0  0  0.275868  0  4.056477  0  0  0.291633  0  4.066067  0  0  0.242854  0.265435  0  4.049877  0
C  C11  1  0.52051533  0.80447651  0.70479917  1  0  0.312351  0  3.781107  0  0  0.275816  0  4.056518  0  0  0.291581  0  4.06611  0  0  0.242832  0.265384  0  4.049932  0
C  C12  1  0.60396810  0.17351895  0.20025305  1  0  0.113546  0  3.772913  0  0  0.08689  0  4.052022  0  0  0.0934  0  4.064239  0  0  0.217329  0.082547  0  4.043821  0
C  C13  1  0.39603592  0.82648411  0.79974821  1  0  0.113631  0  3.772873  0  0  0.08689  0  4.052101  0  0  0.0934  0  4.064317  0  0  0.217319  0.08255  0  4.043909  0
N  N14  1  0.47830161  0.09287610  0.38273624  1  0  -0.207707  0  3.477607  0  0  -0.150506  0  3.72784  0  0  -0.163924  0  3.742191  0  0  -0.263671  -0.14149  0  3.718222  0
N  N15  1  0.52169907  0.90712418  0.61726530  1  0  -0.207729  0  3.477649  0  0  -0.150531  0  3.727894  0  0  -0.163951  0  3.742247  0  0  -0.263662  -0.141513  0  3.718275  0
N  N16  1  0.35503453  0.14242118  0.46299554  1  0  -0.30322  0  2.875544  0  0  -0.298617  0  3.160206  0  0  -0.308951  0  3.172445  0  0  -0.22882  -0.291668  0  3.151914  0
N  N17  1  0.64496312  0.85758050  0.53700491  1  0  -0.303118  0  2.875613  0  0  -0.298552  0  3.160232  0  0  -0.308885  0  3.172473  0  0  -0.228801  -0.291592  0  3.151929  0
N  N18  1  0.35537488  0.31473392  0.31527134  1  0  -0.463972  0  2.932453  0  0  -0.422098  0  3.190316  0  0  -0.438679  0  3.197935  0  0  -0.306864  -0.410979  0  3.185129  0
N  N19  1  0.64462769  0.68526639  0.68472867  1  0  -0.463919  0  2.932396  0  0  -0.422084  0  3.190223  0  0  -0.438665  0  3.197842  0  0  -0.306834  -0.410961  0  3.185054  0
N  N20  1  0.14411787  0.37066223  0.46777648  1  0  -0.29385  0  2.981729  0  0  -0.285996  0  3.273005  0  0  -0.30696  0  3.287492  0  0  -0.151825  -0.271742  0  3.262973  0
N  N21  1  0.85588020  0.62933668  0.53222380  1  0  -0.293799  0  2.981771  0  0  -0.285978  0  3.272996  0  0  -0.306943  0  3.28749  0  0  -0.151791  -0.271732  0  3.26297  0
N  N22  1  0.08530926  0.33187794  0.56189408  1  0  0.379862  0  3.932998  0  0  0.40115  0  4.244509  0  0  0.415026  0  4.262168  0  0  0.156347  0.391493  0  4.23287  0
N  N23  1  0.91469027  0.66812374  0.43810658  1  0  0.379947  0  3.932706  0  0  0.401247  0  4.24423  0  0  0.415124  0  4.261886  0  0  0.156336  0.391589  0  4.232585  0
N  N24  1  0.01475137  0.31409018  0.64743995  1  0  -0.155739  0  2.390605  0  0  -0.160703  0  2.628566  0  0  -0.154229  0  2.631141  0  0  -0.078404  -0.165255  0  2.627461  0
N  N25  1  0.98525008  0.68591158  0.35255571  1  0  -0.15585  0  2.390339  0  0  -0.160828  0  2.628314  0  0  -0.154364  0  2.6309  0  0  -0.07845  -0.165381  0  2.627201  0
N  N26  1  0.70811194  0.03748632  0.18813166  1  0  0.272052  0  3.775589  0  0  0.312843  0  4.056012  0  0  0.315064  0  4.075555  0  0  -0.029127  0.3107  0  4.04277  0
N  N27  1  0.29189135  0.96251534  0.81187027  1  0  0.272021  0  3.775483  0  0  0.312837  0  4.055916  0  0  0.315056  0  4.07546  0  0  -0.029117  0.310693  0  4.042681  0
N  N28  1  0.81575403  0.05260093  0.09385948  1  0  -0.194354  0  2.882802  0  0  -0.198694  0  3.184244  0  0  -0.198476  0  3.193986  0  0  -0.132395  -0.198565  0  3.177657  0
N  N29  1  0.18424519  0.94739659  0.90614168  1  0  -0.19438  0  2.88282  0  0  -0.19872  0  3.184262  0  0  -0.198504  0  3.194006  0  0  -0.132396  -0.198585  0  3.177668  0
N  N30  1  0.77704455  0.19458298  0.05050262  1  0  -0.107651  0  3.050203  0  0  -0.090504  0  3.363286  0  0  -0.091574  0  3.374821  0  0  -0.173872  -0.089527  0  3.355283  0
N  N31  1  0.22295874  0.80541870  0.94949845  1  0  -0.107634  0  3.050223  0  0  -0.090479  0  3.363295  0  0  -0.091551  0  3.374831  0  0  -0.173858  -0.089491  0  3.355273  0
N  N32  1  0.64779530  0.27248617  0.11355113  1  0  -0.315747  0  3.00926  0  0  -0.294175  0  3.301522  0  0  -0.301864  0  3.31318  0  0  -0.275695  -0.288835  0  3.293594  0
N  N33  1  0.35220540  0.72751416  0.88644781  1  0  -0.315779  0  3.009233  0  0  -0.294183  0  3.301516  0  0  -0.301869  0  3.313169  0  0  -0.275673  -0.288836  0  3.293579  0
O  O34  1  0.71112443  0.91137274  0.25342079  1  0  -0.554147  0  1.822106  0  0  -0.521772  0  2.055506  0  0  -0.544789  0  2.055013  0  0  -0.254351  -0.505043  0  2.055186  0
O  O35  1  0.28887814  0.08862757  0.74657922  1  0  -0.55413  0  1.822035  0  0  -0.521763  0  2.055457  0  0  -0.544781  0  2.054963  0  0  -0.25436  -0.505027  0  2.055135  0
O  O36  1  0.31261551  0.56944958  0.15457985  1  0  -0.921093  0  1.855809  0  0  -0.870997  0  2.03956  0  0  -0.890349  0  2.009086  0  0  -0.715479  -0.857164  0  2.060608  0
O  O37  1  0.68738257  0.43054934  0.84542043  1  0  -0.921021  0  1.855837  0  0  -0.870898  0  2.039576  0  0  -0.890253  0  2.009101  0  0  -0.71542  -0.857057  0  2.060613  0
