# generated using pymatgen
data_LiH4C3SO5
_symmetry_space_group_name_H-M   'P 1'
_cell_length_a   4.72902427
_cell_length_b   7.03490848
_cell_length_c   8.44255749
_cell_angle_alpha   91.69082523
_cell_angle_beta   94.32201046
_cell_angle_gamma   101.00136603
_symmetry_Int_Tables_number   1
_chemical_formula_structural   LiH4C3SO5
_chemical_formula_sum   'Li2 H8 C6 S2 O10'
_cell_volume   274.64697794
_cell_formula_units_Z   2
loop_
 _symmetry_equiv_pos_site_id
 _symmetry_equiv_pos_as_xyz
  1  'x, y, z'
loop_
 _atom_site_type_symbol
 _atom_site_label
 _atom_site_symmetry_multiplicity
 _atom_site_fract_x
 _atom_site_fract_y
 _atom_site_fract_z
 _atom_site_occupancy
 _atom_site_hle17_bader_spin_density
 _atom_site_hle17_ddec_charge
 _atom_site_hle17_ddec_spin_density
 _atom_site_hle17_ddec_sum_bond_order
 _atom_site_hle17_magmom
 _atom_site_hse06_10hf_bader_spin_density
 _atom_site_hse06_10hf_ddec_charge
 _atom_site_hse06_10hf_ddec_spin_density
 _atom_site_hse06_10hf_ddec_sum_bond_order
 _atom_site_hse06_10hf_magmom
 _atom_site_hse06_bader_spin_density
 _atom_site_hse06_ddec_charge
 _atom_site_hse06_ddec_spin_density
 _atom_site_hse06_ddec_sum_bond_order
 _atom_site_hse06_magmom
 _atom_site_pbe_bader_spin_density
 _atom_site_pbe_cm5_charge
 _atom_site_pbe_ddec_charge
 _atom_site_pbe_ddec_spin_density
 _atom_site_pbe_ddec_sum_bond_order
 _atom_site_pbe_magmom
Li  Li0  1  0.18149615  0.34958495  0.97356390  1  0  0.875101  0  0.350398  0  0  0.837043  0  0.450024  0  0  0.845753  0  0.434837  0  0  0.4841  0.830727  0  0.460949  0
Li  Li1  1  0.81850208  0.65041406  0.02643693  1  0  0.875105  0  0.35039  0  0  0.837042  0  0.450028  0  0  0.845752  0  0.434841  0  0  0.484105  0.830726  0  0.460952  0
H  H2  1  0.77284401  0.02080716  0.88407669  1  0  0.43966  0  0.859919  0  0  0.40973  0  0.922092  0  0  0.419738  0  0.907381  0  0  0.309645  0.402667  0  0.932466  0
H  H3  1  0.22715421  0.97919185  0.11592415  1  0  0.439698  0  0.859865  0  0  0.409765  0  0.922042  0  0  0.419774  0  0.90733  0  0  0.309658  0.402702  0  0.932416  0
H  H4  1  0.02077457  0.08028598  0.77811093  1  0  0.445657  0  0.841986  0  0  0.419017  0  0.897564  0  0  0.428303  0  0.883922  0  0  0.313464  0.412489  0  0.907149  0
H  H5  1  0.97922534  0.91971156  0.22189111  1  0  0.445655  0  0.841985  0  0  0.419004  0  0.89758  0  0  0.428283  0  0.883945  0  0  0.31346  0.412475  0  0.907165  0
H  H6  1  0.65163963  0.26958534  0.81388457  1  0  0.408587  0  0.872714  0  0  0.382925  0  0.942714  0  0  0.393301  0  0.931297  0  0  0.319979  0.375624  0  0.950655  0
H  H7  1  0.34836071  0.73041365  0.18611634  1  0  0.4086  0  0.872688  0  0  0.382942  0  0.942683  0  0  0.393318  0  0.931266  0  0  0.319989  0.375641  0  0.950623  0
H  H8  1  0.32989007  0.80860550  0.45399210  1  0  0.135366  0  0.942659  0  0  0.144391  0  1.00156  0  0  0.148509  0  0.998718  0  0  0.116591  0.141451  0  1.003654  0
H  H9  1  0.67011114  0.19139640  0.54600893  1  0  0.135371  0  0.942691  0  0  0.144379  0  1.001606  0  0  0.148495  0  0.99877  0  0  0.116588  0.141442  0  1.003704  0
C  C10  1  0.50778600  0.42709074  0.65388276  1  0  0.339469  0  3.800279  0  0  0.322213  0  4.065592  0  0  0.332719  0  4.080926  0  0  0.091044  0.314827  0  4.055354  0
C  C11  1  0.49221901  0.57290969  0.34611838  1  0  0.339488  0  3.800317  0  0  0.322192  0  4.065674  0  0  0.332695  0  4.081009  0  0  0.091047  0.314806  0  4.055431  0
C  C12  1  0.41137075  0.60050583  0.62445986  1  0  -0.20265  0  3.723001  0  0  -0.183959  0  3.976842  0  0  -0.190695  0  3.996106  0  0  -0.017536  -0.179554  0  3.964113  0
C  C13  1  0.58862746  0.39949319  0.37553860  1  0  -0.20267  0  3.723087  0  0  -0.183956  0  3.976915  0  0  -0.190686  0  3.996181  0  0  -0.01752  -0.179547  0  3.964187  0
C  C14  1  0.40338418  0.67292253  0.47267282  1  0  -0.162581  0  3.714705  0  0  -0.196789  0  3.969295  0  0  -0.198562  0  3.986549  0  0  -0.091112  -0.195607  0  3.957832  0
C  C15  1  0.59662594  0.32708078  0.52732861  1  0  -0.162594  0  3.714761  0  0  -0.196798  0  3.969325  0  0  -0.198578  0  3.986592  0  0  -0.091101  -0.195623  0  3.95787  0
S  S16  1  0.30912859  0.73453928  0.78396960  1  0  1.388622  0  5.557762  0  0  1.290322  0  6.072223  0  0  1.337794  0  6.045856  0  0  0.55306  1.257581  0  6.089567  0
S  S17  1  0.69086963  0.26545973  0.21603124  1  0  1.388705  0  5.557745  0  0  1.290355  0  6.072227  0  0  1.337805  0  6.045881  0  0  0.553071  1.257611  0  6.089576  0
O  O18  1  0.09206028  0.59711372  0.86200099  1  0  -0.781405  0  2.029855  0  0  -0.739415  0  2.306365  0  0  -0.757796  0  2.289699  0  0  -0.404812  -0.726468  0  2.317527  0
O  O19  1  0.90794005  0.40288529  0.13799755  1  0  -0.781418  0  2.029813  0  0  -0.739432  0  2.306335  0  0  -0.757815  0  2.289687  0  0  -0.404814  -0.726492  0  2.317512  0
O  O20  1  0.90090529  0.13922668  0.84923843  1  0  -0.886309  0  1.860948  0  0  -0.840426  0  2.037516  0  0  -0.857651  0  2.00785  0  0  -0.616939  -0.82831  0  2.058157  0
O  O21  1  0.09909081  0.86077235  0.15076114  1  0  -0.88633  0  1.860904  0  0  -0.840456  0  2.037499  0  0  -0.857683  0  2.00784  0  0  -0.616949  -0.82834  0  2.058139  0
O  O22  1  0.57144812  0.79780926  0.89498182  1  0  -0.749222  0  2.028539  0  0  -0.695228  0  2.286086  0  0  -0.714735  0  2.268786  0  0  -0.374897  -0.681554  0  2.297729  0
O  O23  1  0.42855053  0.20219121  0.10501670  1  0  -0.749282  0  2.028508  0  0  -0.695273  0  2.286055  0  0  -0.714783  0  2.268764  0  0  -0.374915  -0.6816  0  2.2977  0
O  O24  1  0.20309781  0.89673626  0.71329887  1  0  -0.65106  0  1.948881  0  0  -0.593907  0  2.179984  0  0  -0.614565  0  2.165781  0  0  -0.317682  -0.579417  0  2.189309  0
O  O25  1  0.79690170  0.10326711  0.28669977  1  0  -0.651095  0  1.94897  0  0  -0.593869  0  2.180039  0  0  -0.6145  0  2.165828  0  0  -0.31768  -0.579377  0  2.189366  0
O  O26  1  0.51061299  0.36061742  0.80406128  1  0  -0.59922  0  2.193077  0  0  -0.555901  0  2.431516  0  0  -0.57209  0  2.420089  0  0  -0.364913  -0.544433  0  2.439257  0
O  O27  1  0.48938991  0.63938302  0.19593978  1  0  -0.59925  0  2.193066  0  0  -0.555911  0  2.431494  0  0  -0.572098  0  2.420067  0  0  -0.364934  -0.544444  0  2.439236  0
