# generated using pymatgen
data_CoH14C12(N4O)2
_symmetry_space_group_name_H-M   'P 1'
_cell_length_a   6.96410187
_cell_length_b   7.03827068
_cell_length_c   8.43412765
_cell_angle_alpha   114.82490234
_cell_angle_beta   108.97557753
_cell_angle_gamma   89.92126148
_symmetry_Int_Tables_number   1
_chemical_formula_structural   CoH14C12(N4O)2
_chemical_formula_sum   'Co1 H14 C12 N8 O2'
_cell_volume   350.38482942
_cell_formula_units_Z   1
loop_
 _symmetry_equiv_pos_site_id
 _symmetry_equiv_pos_as_xyz
  1  'x, y, z'
loop_
 _atom_site_type_symbol
 _atom_site_label
 _atom_site_symmetry_multiplicity
 _atom_site_fract_x
 _atom_site_fract_y
 _atom_site_fract_z
 _atom_site_occupancy
 _atom_site_pbe_cm5_charge
 _atom_site_pbe_ddec_charge
 _atom_site_pbe_ddec_spin_density
 _atom_site_pbe_ddec_sum_bond_order
 _atom_site_pbe_magmom
Co  Co0  1  0.50000099  0.99999603  0.99999817  1  0.782367  0.925992  -0.995886  3.133899  -0.907
H  H1  1  0.08559458  0.66616989  0.33170933  1  0.302136  0.257465  0.000136  1.014076  0.0
H  H2  1  0.91440056  0.33383328  0.66828840  1  0.30216  0.257528  0.000137  1.014096  0.0
H  H3  1  0.97996774  0.77500227  0.79752427  1  0.099206  0.114067  9.7e-05  1.011785  0.0
H  H4  1  0.98016212  0.02297022  0.79771650  1  0.099279  0.114106  0.0001  1.012563  0.0
H  H5  1  0.02003162  0.22499921  0.20247760  1  0.099198  0.114052  9.7e-05  1.011789  0.0
H  H6  1  0.01984082  0.97703440  0.20228630  1  0.099287  0.11414  0.0001  1.012559  0.0
H  H7  1  0.64935453  0.90185611  0.55509815  1  0.092695  0.094916  -2.1e-05  0.998971  0.0
H  H8  1  0.64989054  0.65226917  0.55416668  1  0.09273  0.095154  -2.1e-05  0.998229  0.0
H  H9  1  0.35064592  0.09815174  0.44490392  1  0.092695  0.094907  -2.1e-05  0.998937  0.0
H  H10  1  0.35010567  0.34774035  0.44583242  1  0.092779  0.09522  -2.1e-05  0.998119  0.0
H  H11  1  0.72021986  0.51240910  0.27673172  1  0.09699  0.067415  0.000162  1.038968  0.0
H  H12  1  0.72098376  0.76685995  0.27836687  1  0.096792  0.067276  0.000157  1.037294  0.0
H  H13  1  0.27977249  0.48759567  0.72326700  1  0.096995  0.067494  0.000161  1.038959  0.0
H  H14  1  0.27900684  0.23314327  0.72162962  1  0.096745  0.067236  0.000157  1.037282  0.0
C  C15  1  0.10850906  0.80420643  0.60909833  1  0.241503  0.530236  0.00027  4.074944  0.0
C  C16  1  0.89148655  0.19579037  0.39089728  1  0.241512  0.530224  0.00027  4.074865  0.0
C  C17  1  0.95244799  0.85250972  0.70504874  1  -0.16155  -0.286632  -0.000796  3.904432  -0.002
C  C18  1  0.04755114  0.14749019  0.29495132  1  -0.161533  -0.286621  -0.000796  3.904524  -0.002
C  C19  1  0.74052173  0.77344896  0.54697529  1  -0.161071  -0.148169  9.5e-05  3.862987  0.0
C  C20  1  0.25947365  0.22655578  0.45302425  1  -0.161134  -0.148218  9.5e-05  3.862927  0.0
C  C21  1  0.78389542  0.68152419  0.36216581  1  -0.069757  -0.021154  -0.000786  3.876658  -0.001
C  C22  1  0.21609998  0.31848056  0.63783256  1  -0.069709  -0.021182  -0.000786  3.876649  -0.001
C  C23  1  0.69980630  0.29018991  0.89982555  1  0.324532  0.446222  0.010402  4.20537  0.007
C  C24  1  0.69992698  0.60844461  0.89976030  1  0.325232  0.446557  0.010371  4.203674  0.007
C  C25  1  0.30020128  0.70980664  0.10018161  1  0.324553  0.446192  0.010397  4.20548  0.007
C  C26  1  0.30007919  0.39154252  0.10023482  1  0.325397  0.446754  0.010369  4.203508  0.007
N  N27  1  0.00777248  0.71129917  0.42279560  1  -0.420528  -0.334485  -0.001371  3.499619  -0.003
N  N28  1  0.99222172  0.28870722  0.57720064  1  -0.420561  -0.334593  -0.001371  3.499594  -0.003
N  N29  1  0.65376214  0.16491159  0.94420846  1  -0.376309  -0.486047  0.004314  3.421426  0.002
N  N30  1  0.65393739  0.77855371  0.94406568  1  -0.37687  -0.486221  0.004267  3.419338  0.002
N  N31  1  0.34623853  0.83508025  0.05579865  1  -0.3763  -0.48601  0.004314  3.421567  0.002
N  N32  1  0.34606861  0.22144139  0.05592984  1  -0.376933  -0.486298  0.004267  3.419392  0.002
N  N33  1  0.75860358  0.42280920  0.84738278  1  -0.307174  -0.406979  0.003254  3.508129  0.001
N  N34  1  0.24141023  0.57718880  0.15263137  1  -0.307321  -0.407119  0.003254  3.507858  0.001
O  O35  1  0.30044448  0.84189020  0.68519364  1  -0.289009  -0.526723  -0.032684  2.264559  -0.056
O  O36  1  0.69955132  0.15809865  0.31480038  1  -0.289024  -0.526701  -0.032685  2.264504  -0.056
