# generated using pymatgen
data_CuH6C7N4
_symmetry_space_group_name_H-M   'P 1'
_cell_length_a   7.31014044
_cell_length_b   7.45079722
_cell_length_c   7.45085147
_cell_angle_alpha   106.73578647
_cell_angle_beta   90.01462850
_cell_angle_gamma   89.98508356
_symmetry_Int_Tables_number   1
_chemical_formula_structural   CuH6C7N4
_chemical_formula_sum   'Cu2 H12 C14 N8'
_cell_volume   388.63141812
_cell_formula_units_Z   2
loop_
 _symmetry_equiv_pos_site_id
 _symmetry_equiv_pos_as_xyz
  1  'x, y, z'
loop_
 _atom_site_type_symbol
 _atom_site_label
 _atom_site_symmetry_multiplicity
 _atom_site_fract_x
 _atom_site_fract_y
 _atom_site_fract_z
 _atom_site_occupancy
 _atom_site_pbe_bader_spin_density
 _atom_site_pbe_cm5_charge
 _atom_site_pbe_ddec_charge
 _atom_site_pbe_ddec_spin_density
 _atom_site_pbe_ddec_sum_bond_order
 _atom_site_pbe_magmom
Cu  Cu0  1  0.99999867  0.49999982  0.50000039  1  0  0.765125  0.52062  0  2.471846  0
Cu  Cu1  1  0.49999869  0.50000058  0.49999927  1  0  0.765566  0.521329  0  2.472086  0
H  H2  1  0.04609289  0.93264404  0.66788590  1  0  0.115752  0.112609  0  1.005701  0
H  H3  1  0.54625023  0.06734965  0.33218356  1  0  0.115807  0.112652  0  1.005782  0
H  H4  1  0.45375144  0.33218369  0.06735395  1  0  0.115813  0.112666  0  1.005753  0
H  H5  1  0.95390569  0.66788470  0.93264506  1  0  0.115742  0.112584  0  1.005701  0
H  H6  1  0.95390723  0.06735569  0.33211489  1  0  0.115757  0.112609  0  1.0057  0
H  H7  1  0.45374990  0.93265292  0.66781405  1  0  0.115804  0.112664  0  1.005785  0
H  H8  1  0.54624868  0.66781465  0.93264509  1  0  0.115815  0.112664  0  1.005759  0
H  H9  1  0.04609306  0.33211641  0.06735882  1  0  0.115757  0.112608  0  1.005698  0
H  H10  1  0.87060107  0.28809429  0.71191055  1  0  0.088843  0.076982  0  1.032406  0
H  H11  1  0.37084176  0.71185772  0.28813410  1  0  0.089128  0.077254  0  1.031841  0
H  H12  1  0.62915973  0.28814201  0.71186669  1  0  0.089129  0.077263  0  1.031863  0
H  H13  1  0.12939905  0.71190546  0.28808890  1  0  0.088864  0.077014  0  1.032383  0
C  C14  1  0.74987949  0.23283055  0.76717717  1  0  -0.150685  -0.180059  0  4.011405  0
C  C15  1  0.25012063  0.76716919  0.23282362  1  0  -0.150726  -0.18007  0  4.011375  0
C  C16  1  0.74989421  0.02266361  0.69471394  1  0  -0.040865  0.015809  0  4.03252  0
C  C17  1  0.25010728  0.97733612  0.30528685  1  0  -0.040865  0.01577  0  4.032539  0
C  C18  1  0.74989486  0.30529164  0.97734110  1  0  -0.04091  0.015842  0  4.032499  0
C  C19  1  0.25010527  0.69470951  0.02265877  1  0  -0.040874  0.015866  0  4.032453  0
C  C20  1  0.90078762  0.90165627  0.65523513  1  0  -0.001871  -0.078191  0  3.987575  0
C  C21  1  0.40095090  0.09835876  0.34480746  1  0  -0.001992  -0.078257  0  3.987401  0
C  C22  1  0.59905065  0.34481051  0.09836344  1  0  -0.001995  -0.078352  0  3.987289  0
C  C23  1  0.09920971  0.65523241  0.90165450  1  0  -0.001845  -0.078158  0  3.987513  0
C  C24  1  0.09921114  0.09834205  0.34476659  1  0  -0.001892  -0.078208  0  3.98757  0
C  C25  1  0.59904785  0.90164240  0.65519107  1  0  -0.002  -0.07833  0  3.987428  0
C  C26  1  0.40094948  0.65519064  0.90163643  1  0  -0.001999  -0.078341  0  3.987302  0
C  C27  1  0.90078904  0.34476874  0.09834537  1  0  -0.001833  -0.078157  0  3.987534  0
N  N28  1  0.84130146  0.72233714  0.59385133  1  0  -0.291436  -0.165883  0  3.707174  0
N  N29  1  0.34139694  0.27766994  0.40617286  1  0  -0.291756  -0.166388  0  3.707478  0
N  N30  1  0.65860400  0.40617210  0.27767240  1  0  -0.291731  -0.166252  0  3.707262  0
N  N31  1  0.15869512  0.59385233  0.72233596  1  0  -0.29146  -0.165998  0  3.707281  0
N  N32  1  0.15869730  0.27766260  0.40614813  1  0  -0.291361  -0.165784  0  3.707149  0
N  N33  1  0.65860182  0.72232981  0.59382659  1  0  -0.291691  -0.166252  0  3.707407  0
N  N34  1  0.34139476  0.59382765  0.72232705  1  0  -0.291699  -0.166209  0  3.707296  0
N  N35  1  0.84130364  0.40614741  0.27766483  1  0  -0.291415  -0.165916  0  3.707223  0
