# generated using pymatgen
data_H6Pd(CO)4
_symmetry_space_group_name_H-M   'P 1'
_cell_length_a   5.90266556
_cell_length_b   7.29145800
_cell_length_c   7.84349602
_cell_angle_alpha   98.26990503
_cell_angle_beta   90.00088811
_cell_angle_gamma   90.00062133
_symmetry_Int_Tables_number   1
_chemical_formula_structural   H6Pd(CO)4
_chemical_formula_sum   'H12 Pd2 C8 O8'
_cell_volume   334.06622624
_cell_formula_units_Z   2
loop_
 _symmetry_equiv_pos_site_id
 _symmetry_equiv_pos_as_xyz
  1  'x, y, z'
loop_
 _atom_site_type_symbol
 _atom_site_label
 _atom_site_symmetry_multiplicity
 _atom_site_fract_x
 _atom_site_fract_y
 _atom_site_fract_z
 _atom_site_occupancy
 _atom_site_hle17_bader_spin_density
 _atom_site_hle17_ddec_charge
 _atom_site_hle17_ddec_spin_density
 _atom_site_hle17_ddec_sum_bond_order
 _atom_site_hle17_magmom
 _atom_site_hse06_10hf_bader_spin_density
 _atom_site_hse06_10hf_ddec_charge
 _atom_site_hse06_10hf_ddec_spin_density
 _atom_site_hse06_10hf_ddec_sum_bond_order
 _atom_site_hse06_10hf_magmom
 _atom_site_hse06_bader_spin_density
 _atom_site_hse06_ddec_charge
 _atom_site_hse06_ddec_spin_density
 _atom_site_hse06_ddec_sum_bond_order
 _atom_site_hse06_magmom
 _atom_site_pbe_bader_spin_density
 _atom_site_pbe_cm5_charge
 _atom_site_pbe_ddec_charge
 _atom_site_pbe_ddec_spin_density
 _atom_site_pbe_ddec_sum_bond_order
 _atom_site_pbe_magmom
H  H0  1  0.25003989  0.45127811  0.13816054  1  0  0.134971  0  0.93058  0  0  0.155762  0  0.985998  0  0  0.157869  0  0.985909  0  0  0.102803  0.154208  0  0.986114  0
H  H1  1  0.74998111  0.54871298  0.86184168  1  0  0.134921  0  0.930474  0  0  0.155741  0  0.985872  0  0  0.157849  0  0.985783  0  0  0.102762  0.154191  0  0.985987  0
H  H2  1  0.09908769  0.38897825  0.31753425  1  0  0.15232  0  0.952701  0  0  0.168046  0  1.012613  0  0  0.170218  0  1.012458  0  0  0.099161  0.166468  0  1.012793  0
H  H3  1  0.40086829  0.38894155  0.31757953  1  0  0.152269  0  0.952725  0  0  0.167988  0  1.012667  0  0  0.170148  0  1.012537  0  0  0.099074  0.166411  0  1.012851  0
H  H4  1  0.90091130  0.61102710  0.68247825  1  0  0.152321  0  0.952712  0  0  0.168045  0  1.012637  0  0  0.170213  0  1.012485  0  0  0.099176  0.166472  0  1.012814  0
H  H5  1  0.59914933  0.61105302  0.68243833  1  0  0.152337  0  0.952795  0  0  0.168076  0  1.012695  0  0  0.17024  0  1.012554  0  0  0.099127  0.1665  0  1.01288  0
H  H6  1  0.25002389  0.65686998  0.92451568  1  0  0.138984  0  0.93006  0  0  0.159742  0  0.98611  0  0  0.16195  0  0.986042  0  0  0.106458  0.158072  0  0.98626  0
H  H7  1  0.74993782  0.34312966  0.07549245  1  0  0.138983  0  0.930099  0  0  0.159724  0  0.986147  0  0  0.161934  0  0.986077  0  0  0.106449  0.158055  0  0.986295  0
H  H8  1  0.09848674  0.84845824  0.03785622  1  0  0.153632  0  0.947609  0  0  0.17046  0  1.00563  0  0  0.172822  0  1.005553  0  0  0.102023  0.168743  0  1.005746  0
H  H9  1  0.40147866  0.84848308  0.03789073  1  0  0.153581  0  0.94781  0  0  0.170396  0  1.005835  0  0  0.172754  0  1.005759  0  0  0.102009  0.168681  0  1.005956  0
H  H10  1  0.90146650  0.15155286  0.96213129  1  0  0.153549  0  0.947893  0  0  0.170402  0  1.005864  0  0  0.172765  0  1.005792  0  0  0.101981  0.168684  0  1.005983  0
H  H11  1  0.59847627  0.15152734  0.96211204  1  0  0.153556  0  0.947732  0  0  0.170375  0  1.005752  0  0  0.172732  0  1.005691  0  0  0.102015  0.168659  0  1.005871  0
Pd  Pd12  1  0.50001381  0.99998428  0.50000799  1  0  0.596402  0  2.554835  0  0  0.518418  0  3.153105  0  0  0.577265  0  3.083956  0  0  0.715155  0.480438  0  3.201032  0
Pd  Pd13  1  0.00001783  0.00000785  0.49999945  1  0  0.596143  0  2.555582  0  0  0.518243  0  3.153933  0  0  0.577075  0  3.084789  0  0  0.714982  0.480268  0  3.201853  0
C  C14  1  0.25006291  0.65984921  0.35937062  1  0  0.719127  0  3.759795  0  0  0.684719  0  4.051278  0  0  0.723655  0  4.043719  0  0  0.212606  0.658163  0  4.055657  0
C  C15  1  0.74996827  0.34016801  0.64063024  1  0  0.718829  0  3.760207  0  0  0.684586  0  4.051496  0  0  0.723561  0  4.043883  0  0  0.212627  0.658011  0  4.055893  0
C  C16  1  0.25000099  0.45979274  0.27933322  1  0  -0.441812  0  3.631587  0  0  -0.515587  0  3.860574  0  0  -0.524659  0  3.864484  0  0  -0.241762  -0.509132  0  3.857701  0
C  C17  1  0.75001324  0.54020558  0.72067606  1  0  -0.44172  0  3.631877  0  0  -0.515588  0  3.860841  0  0  -0.524666  0  3.864738  0  0  -0.241746  -0.509134  0  3.857972  0
C  C18  1  0.25001247  0.89313870  0.79735752  1  0  0.717277  0  3.762215  0  0  0.67693  0  4.057651  0  0  0.716561  0  4.048534  0  0  0.215311  0.649853  0  4.063263  0
C  C19  1  0.74994754  0.10685499  0.20264111  1  0  0.717465  0  3.762198  0  0  0.677141  0  4.057542  0  0  0.716758  0  4.048429  0  0  0.215332  0.650076  0  4.063156  0
C  C20  1  0.25000187  0.80834007  0.96126531  1  0  -0.452899  0  3.637799  0  0  -0.527885  0  3.871172  0  0  -0.53761  0  3.87541  0  0  -0.241105  -0.520958  0  3.868127  0
C  C21  1  0.74995815  0.19166313  0.03873039  1  0  -0.452882  0  3.637953  0  0  -0.527888  0  3.871251  0  0  -0.537628  0  3.8755  0  0  -0.241113  -0.520959  0  3.868195  0
O  O22  1  0.44425582  0.73542403  0.38922968  1  0  -0.503904  0  2.111469  0  0  -0.458805  0  2.388049  0  0  -0.491786  0  2.37538  0  0  -0.321613  -0.436747  0  2.396327  0
O  O23  1  0.05576523  0.73547410  0.38918267  1  0  -0.503989  0  2.110312  0  0  -0.458913  0  2.386892  0  0  -0.491919  0  2.374236  0  0  -0.321576  -0.436835  0  2.395158  0
O  O24  1  0.55577027  0.26455923  0.61078201  1  0  -0.503844  0  2.111503  0  0  -0.458753  0  2.387947  0  0  -0.491748  0  2.375264  0  0  -0.321614  -0.436686  0  2.396222  0
O  O25  1  0.94426933  0.26453802  0.61079729  1  0  -0.503948  0  2.11027  0  0  -0.458975  0  2.386845  0  0  -0.491991  0  2.374169  0  0  -0.321685  -0.43689  0  2.395112  0
O  O26  1  0.44400737  0.92265524  0.73422806  1  0  -0.507841  0  2.155642  0  0  -0.455628  0  2.435867  0  0  -0.48863  0  2.423419  0  0  -0.314246  -0.433677  0  2.444154  0
O  O27  1  0.05604875  0.92265695  0.73420839  1  0  -0.507877  0  2.156288  0  0  -0.455482  0  2.436349  0  0  -0.488469  0  2.423885  0  0  -0.314182  -0.433528  0  2.444637  0
O  O28  1  0.55601872  0.07731443  0.26575810  1  0  -0.507969  0  2.156174  0  0  -0.455542  0  2.436151  0  0  -0.488515  0  2.423686  0  0  -0.314147  -0.433606  0  2.444446  0
O  O29  1  0.94396548  0.07736890  0.26577031  1  0  -0.50798  0  2.155371  0  0  -0.455749  0  2.435529  0  0  -0.488749  0  2.423075  0  0  -0.314262  -0.433801  0  2.44382  0
