# generated using pymatgen
data_CuNiH12(C3N2)4
_symmetry_space_group_name_H-M   'P 1'
_cell_length_a   6.91261035
_cell_length_b   7.34282201
_cell_length_c   8.76539965
_cell_angle_alpha   112.48450370
_cell_angle_beta   112.62588575
_cell_angle_gamma   92.95183693
_symmetry_Int_Tables_number   1
_chemical_formula_structural   CuNiH12(C3N2)4
_chemical_formula_sum   'Cu1 Ni1 H12 C12 N8'
_cell_volume   369.02078760
_cell_formula_units_Z   1
loop_
 _symmetry_equiv_pos_site_id
 _symmetry_equiv_pos_as_xyz
  1  'x, y, z'
loop_
 _atom_site_type_symbol
 _atom_site_label
 _atom_site_symmetry_multiplicity
 _atom_site_fract_x
 _atom_site_fract_y
 _atom_site_fract_z
 _atom_site_occupancy
 _atom_site_hle17_ddec_charge
 _atom_site_hle17_ddec_spin_density
 _atom_site_hle17_ddec_sum_bond_order
 _atom_site_hle17_magmom
 _atom_site_hse06_10hf_ddec_charge
 _atom_site_hse06_10hf_ddec_spin_density
 _atom_site_hse06_10hf_ddec_sum_bond_order
 _atom_site_hse06_10hf_magmom
 _atom_site_hse06_ddec_charge
 _atom_site_hse06_ddec_spin_density
 _atom_site_hse06_ddec_sum_bond_order
 _atom_site_hse06_magmom
 _atom_site_pbe_cm5_charge
 _atom_site_pbe_ddec_charge
 _atom_site_pbe_ddec_spin_density
 _atom_site_pbe_ddec_sum_bond_order
 _atom_site_pbe_magmom
Cu  Cu0  1  0.50000064  0.49999525  0.50000147  1  0.898554  0.728119  1.991476  0.566  0.862977  0.798962  2.396929  0.661  0.931361  0.85624  2.342964  0.734  0.832333  0.819501  0.754395  2.436211  0.608
Ni  Ni1  1  0.99998719  0.99999882  0.49999675  1  0.114361  0.016133  3.427224  0.016  0.133822  0.00633  3.869146  0.007  0.142754  0.003273  3.818255  0.005  0.399064  0.136732  0.011943  3.898892  0.012
H  H2  1  0.15339047  0.20330772  0.09237405  1  0.10497  0.00014  0.958524  0.0  0.114415  0.000369  1.018074  0.001  0.115958  0.000252  1.017473  0.0  0.120511  0.113336  0.000472  1.018473  0.001
H  H3  1  0.84661485  0.79669511  0.90761814  1  0.104985  0.000147  0.958375  0.0  0.114401  0.000368  1.017976  0.001  0.115957  0.000252  1.017347  0.0  0.1205  0.11331  0.000472  1.0184  0.001
H  H4  1  0.26678066  0.07908318  0.80068111  1  0.105942  0.000615  0.998717  0.001  0.106166  0.000447  1.078625  0.001  0.110864  0.000307  1.07245  0.0  0.109083  0.10229  0.000575  1.083583  0.001
H  H5  1  0.73322414  0.92092422  0.19931017  1  0.105926  0.000611  0.998719  0.001  0.106185  0.000446  1.078587  0.001  0.110881  0.000307  1.072413  0.0  0.109103  0.102313  0.000575  1.083539  0.001
H  H6  1  0.81382105  0.45886459  0.29472418  1  0.107271  -5.5e-05  0.962536  0.0  0.114575  8e-05  1.026803  0.0  0.11518  4.2e-05  1.026676  0.0  0.136133  0.114093  0.000113  1.026871  0.0
H  H7  1  0.18618708  0.54112136  0.70528262  1  0.10733  -5.8e-05  0.962479  0.0  0.114602  8e-05  1.02679  0.0  0.115212  4.3e-05  1.026659  0.0  0.136114  0.114118  0.000113  1.026858  0.0
H  H8  1  0.63041151  0.30554674  0.81267396  1  0.121308  -9.9e-05  0.95125  0.0  0.137406  -3.9e-05  1.016026  0.0  0.137355  -5.3e-05  1.018001  0.0  0.107795  0.137392  -2.4e-05  1.014665  0.0
H  H9  1  0.36959920  0.69446353  0.18733480  1  0.121331  -8.6e-05  0.951258  0.0  0.137417  -3.9e-05  1.016031  0.0  0.137364  -5.3e-05  1.017999  0.0  0.107788  0.137403  -2.4e-05  1.014673  0.0
H  H10  1  0.70908560  0.09245037  0.84857177  1  0.108013  -4.4e-05  0.952014  0.0  0.126606  -6e-06  1.01618  0.0  0.126452  -3.4e-05  1.017916  0.0  0.104354  0.126659  2.4e-05  1.015011  0.0
H  H11  1  0.29092542  0.90755541  0.15143102  1  0.107927  -3e-05  0.952109  0.0  0.126616  -6e-06  1.01617  0.0  0.126463  -3.5e-05  1.017904  0.0  0.104374  0.126671  2.4e-05  1.015  0.0
H  H12  1  0.86519898  0.34485465  0.01289698  1  0.114219  -1.5e-05  0.941954  0.0  0.134373  2.8e-05  1.004264  0.0  0.135145  2.2e-05  1.004418  0.0  0.112228  0.133751  3.3e-05  1.004189  0.0
H  H13  1  0.13480520  0.65514801  0.98710853  1  0.114214  1.2e-05  0.941856  0.0  0.134361  2.8e-05  1.00418  0.0  0.135117  2.2e-05  1.004349  0.0  0.112208  0.133743  3.3e-05  1.004102  0.0
C  C14  1  0.30666312  0.23715242  0.09081515  1  -0.000441  -0.001353  3.749829  0.0  -0.030063  -8.5e-05  4.022693  0.001  -0.025521  -0.001248  4.043393  -0.001  -0.000598  -0.032922  0.000781  4.008392  0.001
C  C15  1  0.69333747  0.76285477  0.90919083  1  -0.000522  -0.001398  3.74968  0.0  -0.030125  -8.4e-05  4.022561  0.001  -0.025583  -0.001244  4.043265  0.0  -0.000651  -0.032981  0.000781  4.008254  0.001
C  C16  1  0.36043006  0.17657813  0.94635652  1  -0.062876  0.004962  3.661607  0.005  -0.102569  0.002134  3.922489  0.002  -0.103625  0.001704  3.941956  0.002  0.002401  -0.101669  0.002637  3.909768  0.003
C  C17  1  0.63957048  0.82342305  0.05364290  1  -0.062848  0.004988  3.662063  0.005  -0.102563  0.002133  3.922926  0.002  -0.103617  0.001702  3.942394  0.002  0.002456  -0.101666  0.002636  3.910206  0.003
C  C18  1  0.64862619  0.37386510  0.20312068  1  0.156834  -0.00847  3.622072  -0.004  0.101906  -0.002545  3.884895  -0.001  0.116666  -0.004012  3.9007  -0.002  0.145168  0.092471  -0.001524  3.87373  0.0
C  C19  1  0.35138162  0.62613301  0.79688549  1  0.15669  -0.008468  3.621976  -0.004  0.101792  -0.002546  3.884797  -0.001  0.116548  -0.004012  3.900607  -0.002  0.145155  0.092359  -0.001523  3.873628  0.0
C  C20  1  0.70255405  0.25050582  0.91680297  1  -0.177951  0.001054  3.607031  0.001  -0.277758  0.000724  3.845948  0.001  -0.275268  0.00052  3.857015  0.001  -0.128465  -0.279127  0.000926  3.838302  0.001
C  C21  1  0.29746518  0.74950150  0.08320267  1  -0.178  0.000983  3.607082  0.001  -0.277859  0.000724  3.846031  0.001  -0.275353  0.000521  3.857101  0.001  -0.128442  -0.279228  0.000925  3.838384  0.001
C  C22  1  0.81724656  0.84556219  0.53379876  1  0.093348  -0.013252  3.45769  0.001  0.073853  -0.002603  3.783299  0.006  0.085762  -0.006031  3.784726  0.003  0.031966  0.063168  0.000239  3.782326  0.009
C  C23  1  0.18273253  0.15442835  0.46618986  1  0.093233  -0.01314  3.457529  0.001  0.073727  -0.002605  3.783163  0.006  0.085634  -0.006023  3.784591  0.003  0.031843  0.063039  0.00024  3.782194  0.009
C  C24  1  0.11155220  0.77806917  0.42118927  1  0.03585  -0.00138  3.512279  -0.001  0.014413  -0.001469  3.855573  -0.001  0.021265  -0.001858  3.857486  -0.001  0.000532  0.007057  -0.000933  3.854471  -0.001
C  C25  1  0.88842565  0.22194097  0.57881235  1  0.035737  -0.001482  3.512826  -0.001  0.014268  -0.001466  3.856152  -0.001  0.021111  -0.001858  3.858073  -0.001  0.000538  0.006915  -0.000933  3.855046  -0.001
N  N26  1  0.48790941  0.35965451  0.24967168  1  -0.349461  0.08496  3.352261  0.114  -0.316186  0.056415  3.673162  0.08  -0.348543  0.04455  3.696061  0.067  -0.370664  -0.294886  0.064225  3.657504  0.087
N  N27  1  0.51208749  0.64033918  0.75031737  1  -0.349416  0.084948  3.352109  0.114  -0.316125  0.05641  3.672977  0.08  -0.348481  0.044548  3.695876  0.067  -0.3706  -0.294824  0.064218  3.657316  0.087
N  N28  1  0.57626109  0.26521224  0.01952358  1  -0.015445  0.001058  3.59155  0.002  0.085289  0.001001  3.805266  0.002  0.070883  0.000522  3.833319  0.001  -0.242731  0.09472  0.001381  3.786139  0.002
N  N29  1  0.42375913  0.73479801  0.98049131  1  -0.015245  0.001063  3.591723  0.002  0.085461  0.001001  3.805454  0.002  0.071058  0.000522  3.833504  0.001  -0.242787  0.094889  0.001381  3.786328  0.002
N  N30  1  0.69951819  0.73866216  0.54736549  1  -0.415073  0.059946  3.125398  0.079  -0.377876  0.043771  3.439751  0.059  -0.402084  0.036751  3.448933  0.052  -0.383517  -0.361955  0.048338  3.434541  0.063
N  N31  1  0.30047082  0.26132987  0.45263102  1  -0.414966  0.059874  3.125277  0.079  -0.377756  0.043769  3.439622  0.059  -0.401961  0.036744  3.448805  0.052  -0.383414  -0.361835  0.048334  3.434412  0.063
N  N32  1  0.17710618  0.63308734  0.36995271  1  -0.432944  -0.000172  2.847342  0.002  -0.402935  -0.000864  3.12866  0.001  -0.417538  -0.001191  3.140013  0.0  -0.359863  -0.392479  -0.000425  3.121529  0.001
N  N33  1  0.82288810  0.36690780  0.63004063  1  -0.432856  -0.000111  2.84798  0.002  -0.402813  -0.000866  3.129272  0.001  -0.417414  -0.001192  3.140628  0.0  -0.359915  -0.392357  -0.000426  3.122137  0.001
