# generated using pymatgen
data_CoH8C4O7
_symmetry_space_group_name_H-M   'P 1'
_cell_length_a   5.76383403
_cell_length_b   8.68516932
_cell_length_c   8.76581081
_cell_angle_alpha   89.99992768
_cell_angle_beta   90.00056977
_cell_angle_gamma   117.37014080
_symmetry_Int_Tables_number   1
_chemical_formula_structural   CoH8C4O7
_chemical_formula_sum   'Co2 H16 C8 O14'
_cell_volume   389.69224111
_cell_formula_units_Z   2
loop_
 _symmetry_equiv_pos_site_id
 _symmetry_equiv_pos_as_xyz
  1  'x, y, z'
loop_
 _atom_site_type_symbol
 _atom_site_label
 _atom_site_symmetry_multiplicity
 _atom_site_fract_x
 _atom_site_fract_y
 _atom_site_fract_z
 _atom_site_occupancy
 _atom_site_hle17_ddec_charge
 _atom_site_hle17_ddec_spin_density
 _atom_site_hle17_ddec_sum_bond_order
 _atom_site_hle17_magmom
 _atom_site_hse06_10hf_ddec_charge
 _atom_site_hse06_10hf_ddec_spin_density
 _atom_site_hse06_10hf_ddec_sum_bond_order
 _atom_site_hse06_10hf_magmom
 _atom_site_hse06_ddec_charge
 _atom_site_hse06_ddec_spin_density
 _atom_site_hse06_ddec_sum_bond_order
 _atom_site_hse06_magmom
 _atom_site_pbe_cm5_charge
 _atom_site_pbe_ddec_charge
 _atom_site_pbe_ddec_spin_density
 _atom_site_pbe_ddec_sum_bond_order
 _atom_site_pbe_magmom
Co  Co0  1  0.93257690  0.64438020  0.10882706  1  1.117887  2.838533  1.826243  2.615  1.087235  2.84888  2.221022  2.678  1.1594  2.884746  2.151606  2.744  0.633819  1.028227  2.814236  2.273333  2.616
Co  Co1  1  0.06741589  0.35561703  0.60882817  1  1.11784  2.838472  1.826298  2.615  1.087248  2.848864  2.221059  2.678  1.159435  2.884737  2.151616  2.744  0.633836  1.028259  2.814243  2.273367  2.616
H  H2  1  0.94334898  0.87063478  0.49178544  1  0.145892  -0.000128  0.907987  0.0  0.159835  0.000171  0.962483  0.0  0.163558  9.6e-05  0.960014  0.0  0.114981  0.156899  0.000202  0.964573  0.0
H  H3  1  0.05665644  0.12936501  0.99178411  1  0.145857  -0.000138  0.908  0.0  0.159806  0.000171  0.962507  0.0  0.163531  9.6e-05  0.960035  0.0  0.114964  0.156877  0.000202  0.964587  0.0
H  H4  1  0.26242677  0.91155286  0.54410700  1  0.123678  -0.000249  0.952413  0.0  0.133937  6.1e-05  1.016134  0.0  0.136807  2e-06  1.015087  0.0  0.104803  0.131673  0.000108  1.017124  0.0
H  H5  1  0.73757813  0.08844281  0.04410556  1  0.123645  -0.000251  0.952369  0.0  0.1339  6.1e-05  1.016114  0.0  0.136769  2e-06  1.015069  0.0  0.104785  0.131635  0.000108  1.017105  0.0
H  H6  1  0.31036867  0.08632479  0.32298996  1  0.079461  0.000775  0.883588  0.001  0.091041  0.000537  0.934874  0.001  0.093187  0.000339  0.933174  0.0  0.120155  0.089469  0.000748  0.936301  0.001
H  H7  1  0.68962983  0.91367678  0.82298503  1  0.079385  0.000776  0.883612  0.001  0.091004  0.000537  0.934883  0.001  0.093151  0.000339  0.933184  0.0  0.120127  0.089437  0.000748  0.936315  0.001
H  H8  1  0.06323592  0.62726852  0.83526020  1  0.426858  -0.001206  0.870084  -0.001  0.395564  -0.000505  0.937921  0.0  0.407108  -0.000646  0.921022  0.0  0.293575  0.387205  -0.000408  0.950091  0.0
H  H9  1  0.93677374  0.37273394  0.33525559  1  0.426977  -0.001205  0.869953  -0.001  0.395594  -0.000505  0.937887  0.0  0.407138  -0.000646  0.920988  0.0  0.293599  0.387236  -0.000408  0.950055  0.0
H  H10  1  0.15447595  0.82892039  0.85922637  1  0.426449  -0.000173  0.873018  0.0  0.395572  0.000263  0.937156  0.001  0.406673  8.5e-05  0.921165  0.0  0.293147  0.387573  0.000486  0.948614  0.001
H  H11  1  0.84553802  0.17108613  0.35921995  1  0.426503  -0.000172  0.872959  0.0  0.395623  0.000263  0.937103  0.001  0.406723  8.5e-05  0.921115  0.0  0.293167  0.387627  0.000486  0.948558  0.001
H  H12  1  0.48307417  0.53728943  0.96082322  1  0.441101  -0.000721  0.812982  0.0  0.42206  -0.000155  0.870457  0.0  0.431445  -0.000307  0.859056  0.0  0.319278  0.415157  -3.9e-05  0.877518  0.001
H  H13  1  0.51690266  0.46270682  0.46082279  1  0.441025  -0.00072  0.813027  0.0  0.421992  -0.000155  0.870492  0.0  0.431374  -0.000307  0.859142  0.0  0.319272  0.415089  -4e-05  0.87755  0.001
H  H14  1  0.47699126  0.65292318  0.09856642  1  0.431891  -0.000112  0.871941  0.0  0.401624  0.000236  0.93449  0.001  0.413727  4.7e-05  0.916989  0.001  0.296334  0.392806  0.000389  0.947133  0.001
H  H15  1  0.52299884  0.34707259  0.59856475  1  0.431918  -0.000111  0.871906  0.0  0.401638  0.000237  0.934481  0.001  0.41374  4.6e-05  0.91698  0.001  0.29634  0.392823  0.000389  0.947121  0.001
H  H16  1  0.86751751  0.91495451  0.23414561  1  0.38527  -9.4e-05  0.903663  0.0  0.358948  0.000146  0.975954  0.0  0.37078  2.6e-05  0.96352  0.0  0.300756  0.350497  0.000265  0.98477  0.001
H  H17  1  0.13248201  0.08504829  0.73414702  1  0.385255  -9.5e-05  0.903718  0.0  0.358951  0.000147  0.975977  0.0  0.370783  2.5e-05  0.963543  0.0  0.300771  0.350512  0.000266  0.984772  0.001
C  C18  1  0.03183061  0.65877002  0.45283228  1  0.723203  -0.012911  3.790646  -0.009  0.68301  0.001073  4.090899  0.001  0.719885  0.000541  4.082912  0.001  0.219841  0.65546  5e-05  4.096933  0.0
C  C19  1  0.96816503  0.34122895  0.95283347  1  0.723342  -0.01293  3.790547  -0.009  0.683222  0.001073  4.090676  0.001  0.720096  0.000538  4.082687  0.001  0.219944  0.655672  5e-05  4.09671  0.0
C  C20  1  0.11189529  0.85159626  0.45692575  1  -0.333259  0.002786  3.63016  0.005  -0.378763  0.001497  3.881187  0.003  -0.386098  0.000875  3.88649  0.002  -0.167545  -0.373156  0.002189  3.877988  0.003
C  C21  1  0.88810982  0.14840717  0.95692521  1  -0.333124  0.002802  3.630089  0.005  -0.378665  0.001497  3.881183  0.003  -0.385999  0.000874  3.886491  0.002  -0.167495  -0.373063  0.00219  3.877978  0.003
C  C22  1  0.41932925  0.89221072  0.24558748  1  0.651478  -0.002594  3.812787  -0.002  0.59873  0.000747  4.119821  0.001  0.631612  4.9e-05  4.113839  0.0  0.226391  0.575995  0.001568  4.122902  0.002
C  C23  1  0.58067481  0.10779369  0.74558266  1  0.651671  -0.002582  3.812503  -0.002  0.598839  0.000747  4.119714  0.001  0.631736  5.2e-05  4.113711  0.0  0.226419  0.576097  0.001569  4.122808  0.002
C  C24  1  0.21675496  0.94508151  0.30402639  1  0.136762  -0.000567  3.619672  0.0  0.110198  0.000635  3.883367  0.001  0.113298  0.000158  3.890212  0.0  0.002267  0.10775  0.0011  3.878738  0.001
C  C25  1  0.78324939  0.05492174  0.80402399  1  0.136651  -0.000589  3.619638  0.0  0.110023  0.000635  3.883494  0.001  0.113116  0.000159  3.890339  0.0  0.002233  0.107574  0.0011  3.878883  0.001
O  O26  1  0.01657364  0.89725591  0.19098998  1  -0.580771  0.019789  2.191864  0.04  -0.540008  0.018036  2.441554  0.032  -0.562727  0.014669  2.426499  0.027  -0.388161  -0.523004  0.02103  2.452235  0.036
O  O27  1  0.98342880  0.10274708  0.69098776  1  -0.580664  0.019794  2.191963  0.04  -0.539897  0.018037  2.441687  0.032  -0.562616  0.01467  2.426636  0.027  -0.388135  -0.522906  0.021031  2.452352  0.036
O  O28  1  0.55026713  0.57380124  0.06408039  1  -0.817615  0.030897  1.91248  0.054  -0.784796  0.027253  2.118678  0.043  -0.81193  0.021238  2.083237  0.034  -0.572541  -0.76274  0.033594  2.142288  0.052
O  O29  1  0.44972448  0.42619832  0.56408284  1  -0.817532  0.030897  1.912505  0.054  -0.784714  0.027253  2.118715  0.043  -0.811854  0.021238  2.083327  0.034  -0.572523  -0.762666  0.033594  2.142323  0.052
O  O30  1  0.64545350  0.96072193  0.30341859  1  -0.598085  0.003532  2.014576  0.006  -0.53733  0.003113  2.228404  0.005  -0.563403  0.002068  2.219054  0.004  -0.290963  -0.518865  0.0044  2.234476  0.007
O  O31  1  0.35455588  0.03928419  0.80342141  1  -0.598131  0.003536  2.014534  0.006  -0.537348  0.003114  2.22839  0.005  -0.563428  0.002068  2.219033  0.004  -0.290983  -0.518881  0.004401  2.234464  0.007
O  O32  1  0.00957013  0.71148076  0.87880308  1  -0.833548  0.03075  1.926238  0.06  -0.802179  0.025986  2.124996  0.045  -0.829489  0.019985  2.088413  0.036  -0.583666  -0.78123  0.031506  2.150984  0.053
O  O33  1  0.99044278  0.28852324  0.37879992  1  -0.833719  0.030751  1.92608  0.06  -0.802279  0.025987  2.124953  0.045  -0.829593  0.019985  2.088372  0.036  -0.583716  -0.781345  0.031506  2.150944  0.053
O  O34  1  0.34076709  0.77213443  0.14495419  1  -0.631031  0.027814  2.116131  0.05  -0.582159  0.02307  2.369756  0.038  -0.615795  0.018151  2.358185  0.03  -0.297732  -0.556468  0.028037  2.375921  0.044
O  O35  1  0.65923108  0.22786202  0.64494308  1  -0.631127  0.027812  2.116047  0.05  -0.582216  0.023071  2.369714  0.038  -0.615855  0.01815  2.358134  0.03  -0.297728  -0.556526  0.028037  2.375886  0.044
O  O36  1  0.11206221  0.59976143  0.56142145  1  -0.609647  0.038266  2.042848  0.073  -0.574347  0.027727  2.302147  0.048  -0.607057  0.021408  2.287622  0.038  -0.307632  -0.549681  0.03436  2.312408  0.059
O  O37  1  0.88793569  0.40023370  0.06142453  1  -0.609652  0.038263  2.042839  0.073  -0.574367  0.027726  2.302075  0.048  -0.607073  0.021411  2.287541  0.038  -0.307611  -0.549703  0.03436  2.312343  0.059
O  O38  1  0.88863182  0.56506767  0.34190175  1  -0.685962  0.025651  2.045115  0.047  -0.638168  0.021236  2.293513  0.034  -0.670984  0.016473  2.278422  0.027  -0.317134  -0.613561  0.026176  2.304094  0.042
O  O39  1  0.11136125  0.43492977  0.84190317  1  -0.686131  0.025656  2.045179  0.047  -0.638356  0.021236  2.293521  0.034  -0.671173  0.016474  2.278429  0.027  -0.317241  -0.613754  0.026175  2.304112  0.042
