# generated using pymatgen
data_NdH6C5O7
_symmetry_space_group_name_H-M   'P 1'
_cell_length_a   6.81970967
_cell_length_b   7.64381929
_cell_length_c   8.08054716
_cell_angle_alpha   101.06914874
_cell_angle_beta   103.53113428
_cell_angle_gamma   102.48275097
_symmetry_Int_Tables_number   1
_chemical_formula_structural   NdH6C5O7
_chemical_formula_sum   'Nd2 H12 C10 O14'
_cell_volume   386.57992286
_cell_formula_units_Z   2
loop_
 _symmetry_equiv_pos_site_id
 _symmetry_equiv_pos_as_xyz
  1  'x, y, z'
loop_
 _atom_site_type_symbol
 _atom_site_label
 _atom_site_symmetry_multiplicity
 _atom_site_fract_x
 _atom_site_fract_y
 _atom_site_fract_z
 _atom_site_occupancy
 _atom_site_hle17_bader_spin_density
 _atom_site_hle17_ddec_charge
 _atom_site_hle17_ddec_spin_density
 _atom_site_hle17_ddec_sum_bond_order
 _atom_site_hle17_magmom
 _atom_site_hse06_10hf_bader_spin_density
 _atom_site_hse06_10hf_ddec_charge
 _atom_site_hse06_10hf_ddec_spin_density
 _atom_site_hse06_10hf_ddec_sum_bond_order
 _atom_site_hse06_10hf_magmom
 _atom_site_hse06_bader_spin_density
 _atom_site_hse06_ddec_charge
 _atom_site_hse06_ddec_spin_density
 _atom_site_hse06_ddec_sum_bond_order
 _atom_site_hse06_magmom
 _atom_site_pbe_bader_spin_density
 _atom_site_pbe_cm5_charge
 _atom_site_pbe_ddec_charge
 _atom_site_pbe_ddec_spin_density
 _atom_site_pbe_ddec_sum_bond_order
 _atom_site_pbe_magmom
Nd  Nd0  1  0.04643111  0.11560081  0.28862256  1  0  2.309496  0  1.606273  0  0  2.149917  0  2.066231  0  0  2.24428  0  1.927211  0  0  1.503349  2.116735  0  2.099847  0
Nd  Nd1  1  0.95356980  0.88439755  0.71137232  1  0  2.309429  0  1.606325  0  0  2.149824  0  2.066327  0  0  2.244204  0  1.927272  0  0  1.503325  2.116631  0  2.099955  0
H  H2  1  0.52901695  0.22926645  0.28608970  1  0  0.450834  0  0.838211  0  0  0.423234  0  0.894557  0  0  0.434782  0  0.877696  0  0  0.306375  0.415167  0  0.906397  0
H  H3  1  0.47098326  0.77073462  0.71390804  1  0  0.450778  0  0.838296  0  0  0.423191  0  0.894615  0  0  0.434739  0  0.877755  0  0  0.306365  0.415125  0  0.906453  0
H  H4  1  0.37548101  0.16121784  0.08937838  1  0  0.444649  0  0.853745  0  0  0.413596  0  0.917722  0  0  0.424648  0  0.901715  0  0  0.304574  0.405728  0  0.929244  0
H  H5  1  0.62451725  0.83878183  0.91061992  1  0  0.444691  0  0.853689  0  0  0.413628  0  0.917682  0  0  0.424681  0  0.901675  0  0  0.304588  0.405761  0  0.929205  0
H  H6  1  0.45531594  0.46029774  0.78954111  1  0  0.115906  0  0.931921  0  0  0.131939  0  0.990167  0  0  0.134107  0  0.989135  0  0  0.111987  0.130437  0  0.990715  0
H  H7  1  0.54468217  0.53970176  0.21046827  1  0  0.115916  0  0.931896  0  0  0.131956  0  0.99014  0  0  0.134109  0  0.989125  0  0  0.111976  0.130435  0  0.990711  0
H  H8  1  0.56009775  0.33565685  0.64644186  1  0  0.138458  0  0.9241  0  0  0.150473  0  0.982097  0  0  0.15406  0  0.979712  0  0  0.119055  0.147888  0  0.983853  0
H  H9  1  0.43989995  0.66435106  0.35356163  1  0  0.138507  0  0.924141  0  0  0.150553  0  0.982082  0  0  0.154149  0  0.979683  0  0  0.119116  0.14797  0  0.983831  0
H  H10  1  0.81214426  0.50751345  0.94814455  1  0  0.119048  0  0.936952  0  0  0.136065  0  0.992618  0  0  0.138052  0  0.992695  0  0  0.114154  0.134679  0  0.992594  0
H  H11  1  0.18785763  0.49248340  0.05185890  1  0  0.119049  0  0.936906  0  0  0.136094  0  0.992572  0  0  0.138085  0  0.992644  0  0  0.114136  0.134708  0  0.992548  0
H  H12  1  0.67133436  0.35435224  0.04459455  1  0  0.103588  0  0.951643  0  0  0.115608  0  1.01634  0  0  0.118182  0  1.015055  0  0  0.105519  0.113788  0  1.017198  0
H  H13  1  0.32866975  0.64564190  0.95540636  1  0  0.1036  0  0.951607  0  0  0.115625  0  1.016323  0  0  0.118197  0  1.015043  0  0  0.105522  0.113806  0  1.017179  0
C  C14  1  0.33991327  0.17247552  0.74325541  1  0  0.759843  0  3.772911  0  0  0.714287  0  4.066173  0  0  0.748157  0  4.061266  0  0  0.232274  0.690944  0  4.072211  0
C  C15  1  0.66008951  0.82752415  0.25674506  1  0  0.759852  0  3.772918  0  0  0.71424  0  4.066262  0  0  0.748115  0  4.061349  0  0  0.232283  0.690899  0  4.072294  0
C  C16  1  0.51817872  0.33943594  0.76965371  1  0  -0.248975  0  3.663434  0  0  -0.286652  0  3.908137  0  0  -0.291753  0  3.913835  0  0  -0.155562  -0.282752  0  3.903218  0
C  C17  1  0.48182483  0.66056644  0.23035238  1  0  -0.249085  0  3.663481  0  0  -0.286738  0  3.908192  0  0  -0.291834  0  3.913901  0  0  -0.155646  -0.282826  0  3.903277  0
C  C18  1  0.71045652  0.36631403  0.92238640  1  0  -0.238275  0  3.650847  0  0  -0.277074  0  3.894431  0  0  -0.282061  0  3.901123  0  0  -0.155867  -0.273217  0  3.888717  0
C  C19  1  0.28954513  0.63368698  0.07761657  1  0  -0.238255  0  3.650713  0  0  -0.277133  0  3.894426  0  0  -0.282125  0  3.901128  0  0  -0.155866  -0.273273  0  3.888705  0
C  C20  1  0.16114401  0.76683981  0.11572434  1  0  0.748732  0  3.823079  0  0  0.707894  0  4.117321  0  0  0.741098  0  4.112301  0  0  0.225128  0.685005  0  4.123498  0
C  C21  1  0.83885880  0.23315991  0.88427366  1  0  0.748696  0  3.82299  0  0  0.707892  0  4.117144  0  0  0.741092  0  4.112128  0  0  0.225116  0.685003  0  4.123318  0
C  C22  1  0.87963941  0.45993504  0.47689860  1  0  0.567642  0  3.916214  0  0  0.52196  0  4.217081  0  0  0.551637  0  4.21228  0  0  0.228869  0.501459  0  4.223254  0
C  C23  1  0.12035429  0.54006456  0.52310124  1  0  0.567711  0  3.916191  0  0  0.521958  0  4.217128  0  0  0.551635  0  4.212325  0  0  0.228836  0.501456  0  4.223304  0
O  O24  1  0.19969019  0.10749973  0.59336694  1  0  -0.814872  0  2.087935  0  0  -0.757834  0  2.351784  0  0  -0.794767  0  2.339253  0  0  -0.432279  -0.739767  0  2.358857  0
O  O25  1  0.80031189  0.89250269  0.40663515  1  0  -0.814876  0  2.087947  0  0  -0.75781  0  2.351792  0  0  -0.79475  0  2.339269  0  0  -0.432261  -0.739743  0  2.358865  0
O  O26  1  0.68151504  0.90375801  0.13240461  1  0  -0.696442  0  1.997321  0  0  -0.634563  0  2.228589  0  0  -0.664316  0  2.217346  0  0  -0.351009  -0.617031  0  2.235406  0
O  O27  1  0.31848391  0.09623891  0.86759207  1  0  -0.696433  0  1.997291  0  0  -0.634601  0  2.228575  0  0  -0.664357  0  2.21733  0  0  -0.351025  -0.617069  0  2.235393  0
O  O28  1  0.16256098  0.82951066  0.27280023  1  0  -0.689998  0  1.964972  0  0  -0.642655  0  2.203426  0  0  -0.671931  0  2.194301  0  0  -0.370808  -0.626034  0  2.208872  0
O  O29  1  0.83743648  0.17048627  0.72719491  1  0  -0.68994  0  1.964873  0  0  -0.642593  0  2.203277  0  0  -0.671873  0  2.194153  0  0  -0.370769  -0.625971  0  2.208721  0
O  O30  1  0.05085701  0.81199494  0.98679834  1  0  -0.833411  0  2.070183  0  0  -0.780067  0  2.34114  0  0  -0.815604  0  2.326987  0  0  -0.430843  -0.762543  0  2.350026  0
O  O31  1  0.94914647  0.18800201  0.01319927  1  0  -0.833438  0  2.070155  0  0  -0.78012  0  2.341097  0  0  -0.815655  0  2.326945  0  0  -0.430891  -0.762597  0  2.349983  0
O  O32  1  0.80137033  0.29940125  0.37046344  1  0  -0.674116  0  2.067769  0  0  -0.621133  0  2.309253  0  0  -0.650226  0  2.296885  0  0  -0.346463  -0.604584  0  2.316299  0
O  O33  1  0.19862513  0.70059421  0.62953597  1  0  -0.674081  0  2.067791  0  0  -0.621087  0  2.309311  0  0  -0.650182  0  2.296943  0  0  -0.346433  -0.604538  0  2.316357  0
O  O34  1  0.21967899  0.44093863  0.45369510  1  0  -0.636423  0  2.048178  0  0  -0.589266  0  2.298097  0  0  -0.617826  0  2.288165  0  0  -0.357037  -0.573372  0  2.303615  0
O  O35  1  0.78031474  0.55906101  0.54630228  1  0  -0.636378  0  2.048226  0  0  -0.589222  0  2.298093  0  0  -0.617785  0  2.288164  0  0  -0.357026  -0.573327  0  2.303607  0
O  O36  1  0.37912892  0.19402262  0.21555244  1  0  -0.92572  0  1.807753  0  0  -0.875701  0  2.002405  0  0  -0.900488  0  1.964447  0  0  -0.651386  -0.862496  0  2.026126  0
O  O37  1  0.62086827  0.80597844  0.78444467  1  0  -0.925708  0  1.807784  0  0  -0.875685  0  2.002437  0  0  -0.900476  0  1.96448  0  0  -0.651375  -0.862479  0  2.026161  0
