# generated using pymatgen
data_ZnH2C2IN3
_symmetry_space_group_name_H-M   'P 1'
_cell_length_a   6.74149037
_cell_length_b   9.39432216
_cell_length_c   9.75806457
_cell_angle_alpha   89.99955317
_cell_angle_beta   90.00055165
_cell_angle_gamma   108.55549270
_symmetry_Int_Tables_number   1
_chemical_formula_structural   ZnH2C2IN3
_chemical_formula_sum   'Zn4 H8 C8 I4 N12'
_cell_volume   585.86920726
_cell_formula_units_Z   4
loop_
 _symmetry_equiv_pos_site_id
 _symmetry_equiv_pos_as_xyz
  1  'x, y, z'
loop_
 _atom_site_type_symbol
 _atom_site_label
 _atom_site_symmetry_multiplicity
 _atom_site_fract_x
 _atom_site_fract_y
 _atom_site_fract_z
 _atom_site_occupancy
 _atom_site_hle17_bader_spin_density
 _atom_site_hle17_ddec_charge
 _atom_site_hle17_ddec_spin_density
 _atom_site_hle17_ddec_sum_bond_order
 _atom_site_hle17_magmom
 _atom_site_hse06_10hf_bader_spin_density
 _atom_site_hse06_10hf_ddec_charge
 _atom_site_hse06_10hf_ddec_spin_density
 _atom_site_hse06_10hf_ddec_sum_bond_order
 _atom_site_hse06_10hf_magmom
 _atom_site_hse06_bader_spin_density
 _atom_site_hse06_ddec_charge
 _atom_site_hse06_ddec_spin_density
 _atom_site_hse06_ddec_sum_bond_order
 _atom_site_hse06_magmom
 _atom_site_pbe_bader_spin_density
 _atom_site_pbe_cm5_charge
 _atom_site_pbe_ddec_charge
 _atom_site_pbe_ddec_spin_density
 _atom_site_pbe_ddec_sum_bond_order
 _atom_site_pbe_magmom
Zn  Zn0  1  0.46213230  0.67606215  0.43101888  1  0  0.780138  0  2.123141  0  0  0.601208  0  2.589981  0  0  0.641213  0  2.548288  0  0  0.601683  0.573875  0  2.618284  0
Zn  Zn1  1  0.03786435  0.82393674  0.93102089  1  0  0.780164  0  2.123139  0  0  0.601191  0  2.589989  0  0  0.641202  0  2.548295  0  0  0.601683  0.573861  0  2.618299  0
Zn  Zn2  1  0.53786497  0.32393566  0.56898115  1  0  0.780157  0  2.123135  0  0  0.601221  0  2.589947  0  0  0.641226  0  2.548253  0  0  0.601696  0.573887  0  2.618251  0
Zn  Zn3  1  0.96213146  0.17606443  0.06897914  1  0  0.780176  0  2.123114  0  0  0.601214  0  2.589987  0  0  0.641219  0  2.548288  0  0  0.601694  0.573879  0  2.61829  0
H  H4  1  0.65063147  0.00635120  0.30351301  1  0  0.081951  0  0.983635  0  0  0.089772  0  1.053263  0  0  0.092287  0  1.049635  0  0  0.115395  0.087829  0  1.055947  0
H  H5  1  0.84937182  0.49364647  0.80351674  1  0  0.081921  0  0.983639  0  0  0.08975  0  1.053243  0  0  0.092264  0  1.049613  0  0  0.115365  0.087804  0  1.055926  0
H  H6  1  0.34936532  0.99364885  0.69648908  1  0  0.08195  0  0.983636  0  0  0.089767  0  1.053258  0  0  0.092283  0  1.049634  0  0  0.115393  0.087824  0  1.055942  0
H  H7  1  0.15063486  0.50635246  0.19648124  1  0  0.081971  0  0.983579  0  0  0.08978  0  1.053217  0  0  0.092297  0  1.049585  0  0  0.115379  0.087835  0  1.055903  0
H  H8  1  0.77390500  0.61259060  0.18229453  1  0  0.090122  0  0.951955  0  0  0.099274  0  1.019394  0  0  0.101856  0  1.015707  0  0  0.121627  0.097315  0  1.022062  0
H  H9  1  0.72609314  0.88740337  0.68229007  1  0  0.09009  0  0.951949  0  0  0.099233  0  1.019424  0  0  0.101813  0  1.015728  0  0  0.121608  0.097276  0  1.022095  0
H  H10  1  0.22609673  0.38741057  0.81770653  1  0  0.090106  0  0.951964  0  0  0.099257  0  1.019407  0  0  0.101837  0  1.015719  0  0  0.121618  0.097297  0  1.022073  0
H  H11  1  0.27389571  0.11258882  0.31771099  1  0  0.090091  0  0.95195  0  0  0.099231  0  1.01942  0  0  0.101815  0  1.015725  0  0  0.121594  0.09727  0  1.022093  0
C  C12  1  0.77396997  0.72820216  0.18869804  1  0  0.232966  0  3.688424  0  0  0.171934  0  3.957775  0  0  0.187216  0  3.969209  0  0  0.145349  0.161975  0  3.949945  0
C  C13  1  0.72602827  0.77179515  0.68869442  1  0  0.233114  0  3.688339  0  0  0.172069  0  3.957719  0  0  0.187361  0  3.96914  0  0  0.1454  0.162108  0  3.949893  0
C  C14  1  0.22602683  0.27180126  0.81130404  1  0  0.232966  0  3.688425  0  0  0.17192  0  3.957778  0  0  0.187205  0  3.969208  0  0  0.145349  0.161961  0  3.949943  0
C  C15  1  0.27396604  0.22820266  0.31130561  1  0  0.233015  0  3.688487  0  0  0.171966  0  3.95786  0  0  0.187251  0  3.969286  0  0  0.145388  0.162005  0  3.950029  0
C  C16  1  0.70950749  0.92759620  0.24874796  1  0  0.219147  0  3.712447  0  0  0.160934  0  3.975398  0  0  0.1754  0  3.988357  0  0  0.142629  0.15153  0  3.966534  0
C  C17  1  0.79049742  0.57240077  0.74874927  1  0  0.219157  0  3.712368  0  0  0.160945  0  3.975323  0  0  0.175412  0  3.988283  0  0  0.14266  0.151539  0  3.966453  0
C  C18  1  0.29049276  0.07240497  0.75125310  1  0  0.219149  0  3.712484  0  0  0.160909  0  3.975421  0  0  0.175369  0  3.988391  0  0  0.14263  0.151502  0  3.966557  0
C  C19  1  0.20950926  0.42759816  0.25124872  1  0  0.219058  0  3.712301  0  0  0.160849  0  3.975257  0  0  0.175315  0  3.988211  0  0  0.142629  0.151444  0  3.96639  0
I  I20  1  0.18670134  0.80712016  0.45235067  1  0  -0.485319  0  1.048688  0  0  -0.439479  0  1.371944  0  0  -0.457967  0  1.349482  0  0  -0.24597  -0.426283  0  1.387194  0
I  I21  1  0.31331143  0.69288760  0.95234817  1  0  -0.485314  0  1.048642  0  0  -0.439474  0  1.371902  0  0  -0.457962  0  1.349439  0  0  -0.245977  -0.42628  0  1.387151  0
I  I22  1  0.81330138  0.19287989  0.54765346  1  0  -0.485331  0  1.048632  0  0  -0.439502  0  1.371895  0  0  -0.457988  0  1.349429  0  0  -0.245989  -0.426308  0  1.387145  0
I  I23  1  0.68670072  0.30712368  0.04765391  1  0  -0.485331  0  1.048659  0  0  -0.439499  0  1.371933  0  0  -0.457982  0  1.349466  0  0  -0.245982  -0.426304  0  1.387183  0
N  N24  1  0.87865832  0.83591834  0.10267784  1  0  -0.258281  0  3.243785  0  0  -0.184066  0  3.536632  0  0  -0.200704  0  3.549988  0  0  -0.259402  -0.173089  0  3.527671  0
N  N25  1  0.62134478  0.66407944  0.60267641  1  0  -0.258295  0  3.24368  0  0  -0.184111  0  3.536577  0  0  -0.200744  0  3.549928  0  0  -0.259419  -0.173138  0  3.52762  0
N  N26  1  0.12134145  0.16408508  0.89732219  1  0  -0.25826  0  3.243852  0  0  -0.184087  0  3.53672  0  0  -0.20072  0  3.550071  0  0  -0.259416  -0.173104  0  3.52775  0
N  N27  1  0.37865447  0.33591612  0.39732362  1  0  -0.258233  0  3.243809  0  0  -0.184033  0  3.536688  0  0  -0.200669  0  3.550043  0  0  -0.259389  -0.173049  0  3.527716  0
N  N28  1  0.83785350  0.96437073  0.14179259  1  0  -0.25865  0  3.229054  0  0  -0.186035  0  3.517827  0  0  -0.202569  0  3.531717  0  0  -0.260746  -0.175084  0  3.508452  0
N  N29  1  0.66215009  0.53562684  0.64179132  1  0  -0.258599  0  3.228869  0  0  -0.185975  0  3.517637  0  0  -0.202513  0  3.53153  0  0  -0.260721  -0.175023  0  3.508261  0
N  N30  1  0.16214379  0.03563045  0.85820949  1  0  -0.25863  0  3.229025  0  0  -0.185955  0  3.517732  0  0  -0.202493  0  3.531628  0  0  -0.260718  -0.175006  0  3.508359  0
N  N31  1  0.33785461  0.46437096  0.35820564  1  0  -0.258665  0  3.229077  0  0  -0.186062  0  3.517862  0  0  -0.202596  0  3.531752  0  0  -0.260778  -0.175112  0  3.508483  0
N  N32  1  0.66627368  0.78125157  0.28183176  1  0  -0.40208  0  3.285768  0  0  -0.313522  0  3.574954  0  0  -0.336709  0  3.586161  0  0  -0.360558  -0.298044  0  3.567025  0
N  N33  1  0.83372768  0.71874635  0.78183125  1  0  -0.402225  0  3.285888  0  0  -0.313634  0  3.575071  0  0  -0.33684  0  3.586304  0  0  -0.360603  -0.298158  0  3.567147  0
N  N34  1  0.33372607  0.21874849  0.71816930  1  0  -0.402123  0  3.285814  0  0  -0.313522  0  3.574986  0  0  -0.336703  0  3.586175  0  0  -0.360563  -0.298045  0  3.56706  0
N  N35  1  0.16627058  0.28125033  0.21816673  1  0  -0.402073  0  3.285751  0  0  -0.313468  0  3.574881  0  0  -0.336679  0  3.586146  0  0  -0.360542  -0.29799  0  3.566952  0
