# generated using pymatgen
data_CdNiH12(C4N3)2
_symmetry_space_group_name_H-M   'P 1'
_cell_length_a   6.91094346
_cell_length_b   7.70344308
_cell_length_c   7.64529122
_cell_angle_alpha   89.99968948
_cell_angle_beta   87.32610597
_cell_angle_gamma   90.00060993
_symmetry_Int_Tables_number   1
_chemical_formula_structural   CdNiH12(C4N3)2
_chemical_formula_sum   'Cd1 Ni1 H12 C8 N6'
_cell_volume   406.57731970
_cell_formula_units_Z   1
loop_
 _symmetry_equiv_pos_site_id
 _symmetry_equiv_pos_as_xyz
  1  'x, y, z'
loop_
 _atom_site_type_symbol
 _atom_site_label
 _atom_site_symmetry_multiplicity
 _atom_site_fract_x
 _atom_site_fract_y
 _atom_site_fract_z
 _atom_site_occupancy
 _atom_site_pbe_bader_charge
 _atom_site_pbe_bader_spin_density
 _atom_site_pbe_cm5_charge
 _atom_site_pbe_ddec_charge
 _atom_site_pbe_ddec_spin_density
 _atom_site_pbe_ddec_sum_bond_order
 _atom_site_pbe_magmom
Cd  Cd0  1  0.00000476  0.99999993  0.99999833  1  1.263767  0  0.819971  0.894645  0  2.384601  0
Ni  Ni1  1  0.50000036  0.50000211  0.99999035  1  0.63481  0  0.400119  0.12461  0  3.852884  0
H  H2  1  0.94245456  0.89323578  0.66123259  1  0.403636  0  0.298041  0.276414  0  0.947902  0
H  H3  1  0.05754742  0.89325579  0.33875525  1  0.403867  0  0.298182  0.276544  0  0.948455  0
H  H4  1  0.05754093  0.10675942  0.33876681  1  0.403639  0  0.298117  0.276493  0  0.948128  0
H  H5  1  0.94244375  0.10673811  0.66124293  1  0.403858  0  0.298211  0.276501  0  0.948554  0
H  H6  1  0.60753486  0.88592029  0.76691035  1  0.088941  0  0.103043  0.083134  0  0.990397  0
H  H7  1  0.39246530  0.88591680  0.23308804  1  0.088985  0  0.103011  0.083077  0  0.990224  0
H  H8  1  0.39246342  0.11408140  0.23309292  1  0.088965  0  0.103045  0.083123  0  0.990321  0
H  H9  1  0.60752870  0.11408490  0.76691270  1  0.088866  0  0.10302  0.083127  0  0.99011  0
H  H10  1  0.67197678  0.88546713  0.43851280  1  0.04349  0  0.086977  0.083465  0  0.996318  0
H  H11  1  0.32801895  0.88546906  0.56148830  1  0.04344  0  0.087003  0.083485  0  0.996366  0
H  H12  1  0.32802001  0.11453197  0.56149181  1  0.043464  0  0.087022  0.083476  0  0.996246  0
H  H13  1  0.67197649  0.11452744  0.43851241  1  0.0435  0  0.086991  0.08348  0  0.996357  0
C  C14  1  0.67350087  0.66884424  0.05837307  1  0.815287  0  0.017314  0.048532  0  3.848753  0
C  C15  1  0.32649975  0.66885321  0.94161871  1  0.816287  0  0.017332  0.04852  0  3.849707  0
C  C16  1  0.32650355  0.33114967  0.94161699  1  0.815432  0  0.017382  0.048591  0  3.849495  0
C  C17  1  0.67349891  0.33115887  0.05837016  1  0.815223  0  0.017268  0.048515  0  3.848844  0
C  C18  1  0.66764442  0.99999053  0.69761452  1  0.248794  0  -0.076546  0.022753  0  3.908054  0
C  C19  1  0.33235095  0.00000597  0.30238881  1  0.248741  0  -0.076527  0.022904  0  3.908146  0
C  C20  1  0.61008766  0.00000155  0.50740146  1  -0.096396  0  -0.167962  -0.170847  0  3.942347  0
C  C21  1  0.38990775  0.99999625  0.49260056  1  -0.048926  0  -0.168073  -0.170935  0  3.942349  0
N  N22  1  0.78278527  0.77845150  0.09421850  1  -1.357016  0  -0.376257  -0.38846  0  3.21589  0
N  N23  1  0.21723201  0.77843366  0.90579456  1  -1.358039  0  -0.376242  -0.388348  0  3.21687  0
N  N24  1  0.21723596  0.22156188  0.90579216  1  -1.357142  0  -0.376289  -0.388403  0  3.216669  0
N  N25  1  0.78278361  0.22154987  0.09420968  1  -1.357061  0  -0.376223  -0.388465  0  3.216046  0
N  N26  1  0.87900076  0.00002563  0.71897094  1  -1.11417  0  -0.623939  -0.567878  0  3.377951  0
N  N27  1  0.12099328  0.99998774  0.28102850  1  -1.114243  0  -0.62399  -0.568052  0  3.378288  0
