# generated using pymatgen
data_MnH12C10(ClO3)2
_symmetry_space_group_name_H-M   'P 1'
_cell_length_a   5.09626830
_cell_length_b   7.67396311
_cell_length_c   8.75837103
_cell_angle_alpha   101.21896872
_cell_angle_beta   106.98401060
_cell_angle_gamma   99.06873019
_symmetry_Int_Tables_number   1
_chemical_formula_structural   MnH12C10(ClO3)2
_chemical_formula_sum   'Mn1 H12 C10 Cl2 O6'
_cell_volume   312.82003113
_cell_formula_units_Z   1
loop_
 _symmetry_equiv_pos_site_id
 _symmetry_equiv_pos_as_xyz
  1  'x, y, z'
loop_
 _atom_site_type_symbol
 _atom_site_label
 _atom_site_symmetry_multiplicity
 _atom_site_fract_x
 _atom_site_fract_y
 _atom_site_fract_z
 _atom_site_occupancy
 _atom_site_pbe_cm5_charge
 _atom_site_pbe_ddec_charge
 _atom_site_pbe_ddec_spin_density
 _atom_site_pbe_ddec_sum_bond_order
 _atom_site_pbe_magmom
Mn  Mn0  1  0.00000201  0.99999570  0.00000388  1  0.782593  1.117035  3.592775  2.857423  3.489
H  H1  1  0.63495007  0.96167592  0.18263626  1  0.302091  0.34229  0.000364  0.979038  0.001
H  H2  1  0.36505834  0.03832588  0.81737027  1  0.302066  0.342246  0.000364  0.979046  0.001
H  H3  1  0.77351863  0.29280730  0.24991549  1  0.080908  0.033865  -0.001456  1.064995  0.0
H  H4  1  0.22648078  0.70719346  0.75007798  1  0.080941  0.033896  -0.001456  1.064947  0.0
H  H5  1  0.09781374  0.26173135  0.37714851  1  0.093567  0.057449  -0.000236  0.999942  0.0
H  H6  1  0.90218549  0.73827894  0.62285241  1  0.093574  0.057463  -0.000236  0.999892  0.0
H  H7  1  0.51283568  0.13176164  0.40479505  1  0.089551  0.130704  -0.000415  1.017577  0.0
H  H8  1  0.48715577  0.86825025  0.59519921  1  0.089534  0.130775  -0.000415  1.017509  0.0
H  H9  1  0.76595751  0.33052956  0.53407115  1  0.079178  0.113292  0.001061  1.036916  0.001
H  H10  1  0.23403391  0.66948234  0.46592197  1  0.079237  0.113384  0.001061  1.036835  0.001
H  H11  1  0.83911140  0.11196738  0.53981086  1  0.085236  0.132243  -0.000205  1.018006  0.0
H  H12  1  0.16087877  0.88804577  0.46019143  1  0.085277  0.132314  -0.000205  1.018011  0.0
C  C13  1  0.14563504  0.68462094  0.06028198  1  0.086179  0.180663  -0.123135  4.127024  -0.068
C  C14  1  0.85437036  0.31536316  0.93971506  1  0.086232  0.180704  -0.12311  4.127096  -0.068
C  C15  1  0.86130469  0.63061884  0.94262823  1  0.084943  0.173106  -0.129737  4.147993  -0.071
C  C16  1  0.13869842  0.36937485  0.05737366  1  0.084957  0.173108  -0.129751  4.147763  -0.071
C  C17  1  0.71916948  0.44610412  0.88084134  1  -0.023575  -0.098189  0.027099  4.088586  0.03
C  C18  1  0.28083564  0.55388401  0.11916213  1  -0.023462  -0.098015  0.027102  4.088466  0.03
C  C19  1  0.86937607  0.20510205  0.32461838  1  -0.08608  0.127373  0.000785  3.905731  0.001
C  C20  1  0.13062611  0.79490548  0.67538021  1  -0.086123  0.12737  0.000785  3.90569  0.001
C  C21  1  0.74001943  0.19266376  0.45841191  1  -0.25994  -0.417516  0.001734  3.950298  0.001
C  C22  1  0.25997098  0.80734538  0.54158282  1  -0.260026  -0.41777  0.001734  3.950311  0.001
Cl  Cl23  1  0.38615629  0.38245375  0.73824598  1  0.057866  0.025567  0.005536  1.736608  0.003
Cl  Cl24  1  0.61384923  0.61753582  0.26175324  1  0.057878  0.025558  0.005536  1.736612  0.003
O  O25  1  0.25799104  0.86197725  0.10317647  1  -0.292242  -0.434961  -0.060537  2.364378  -0.066
O  O26  1  0.74201151  0.13801510  0.89682393  1  -0.292192  -0.434877  -0.060539  2.364416  -0.066
O  O27  1  0.75261350  0.76612594  0.90040230  1  -0.293261  -0.404877  -0.06524  2.341075  -0.07
O  O28  1  0.24739074  0.23386490  0.09960495  1  -0.293244  -0.404901  -0.065243  2.340913  -0.07
O  O29  1  0.83514860  0.02702555  0.21787595  1  -0.395848  -0.519661  0.047992  2.404031  0.045
O  O30  1  0.16485684  0.97297904  0.78213176  1  -0.395815  -0.519637  0.047992  2.404005  0.045
