# generated using pymatgen
data_UH6C5O6F
_symmetry_space_group_name_H-M   'P 1'
_cell_length_a   5.82657003
_cell_length_b   9.92310177
_cell_length_c   11.16788452
_cell_angle_alpha   110.00245020
_cell_angle_beta   95.42516625
_cell_angle_gamma   113.46631216
_symmetry_Int_Tables_number   1
_chemical_formula_structural   UH6C5O6F
_chemical_formula_sum   'U2 H12 C10 O12 F2'
_cell_volume   536.25379264
_cell_formula_units_Z   2
loop_
 _symmetry_equiv_pos_site_id
 _symmetry_equiv_pos_as_xyz
  1  'x, y, z'
loop_
 _atom_site_type_symbol
 _atom_site_label
 _atom_site_symmetry_multiplicity
 _atom_site_fract_x
 _atom_site_fract_y
 _atom_site_fract_z
 _atom_site_occupancy
 _atom_site_pbe_bader_charge
 _atom_site_pbe_bader_spin_density
 _atom_site_pbe_cm5_charge
 _atom_site_pbe_ddec_charge
 _atom_site_pbe_ddec_spin_density
 _atom_site_pbe_ddec_sum_bond_order
 _atom_site_pbe_magmom
U  U0  1  0.40409474  0.90312015  0.80562324  1  2.921189  -0.010831  2.243889  2.417851  -0.019889  4.887836  -0.014
U  U1  1  0.59584963  0.09686063  0.19437082  1  2.921717  -0.010726  2.243986  2.418192  -0.019739  4.88716  -0.014
H  H2  1  0.20251507  0.31670470  0.73342575  1  0.070377  0.001258  0.11295  0.115754  0.000993  0.944431  0.001
H  H3  1  0.46958014  0.58258785  0.26261956  1  0.089809  0.001271  0.113238  0.115548  0.001017  0.945363  0.001
H  H4  1  0.79758401  0.68332731  0.26658975  1  0.069978  0.001279  0.112917  0.115808  0.001005  0.944371  0.001
H  H5  1  0.53049489  0.41743810  0.73736137  1  0.090215  0.001251  0.11322  0.115456  0.001004  0.945269  0.001
H  H6  1  0.48469444  0.19534388  0.53232860  1  0.135921  0.001327  0.122484  0.154106  0.001022  0.988315  0.001
H  H7  1  0.95014618  0.66434889  0.47171529  1  0.139616  0.001337  0.122137  0.152001  0.001014  0.992833  0.001
H  H8  1  0.51537652  0.80465784  0.46768983  1  0.135953  0.001328  0.122463  0.154109  0.001022  0.988288  0.001
H  H9  1  0.04985879  0.33564438  0.52829679  1  0.139841  0.001335  0.12219  0.152055  0.001014  0.992856  0.001
H  H10  1  0.14594632  0.09745425  0.50317888  1  0.073819  -0.000145  0.112137  0.127002  -4.5e-05  1.001585  0.0
H  H11  1  0.63631800  0.59348469  0.49428349  1  0.075553  -0.000138  0.11179  0.127258  -4.1e-05  1.004154  0.0
H  H12  1  0.85411852  0.90256738  0.49681036  1  0.073764  -0.000148  0.112081  0.126891  -4.7e-05  1.001689  0.0
H  H13  1  0.36366598  0.40652168  0.50570544  1  0.075238  -0.000136  0.111794  0.127303  -4e-05  1.004195  0.0
C  C14  1  0.36558151  0.08119397  0.65781874  1  1.534335  0.006658  0.226485  0.607141  0.007635  4.13239  0.003
C  C15  1  0.70480848  0.42332809  0.34265322  1  1.525759  0.006693  0.228318  0.611179  0.007658  4.125496  0.003
C  C16  1  0.63439165  0.91880131  0.34218427  1  1.534551  0.006653  0.226467  0.607175  0.007636  4.132283  0.003
C  C17  1  0.29517783  0.57666499  0.65734773  1  1.525938  0.006685  0.228295  0.611137  0.007654  4.125441  0.003
C  C18  1  0.32748178  0.17660153  0.58220597  1  -0.056168  0.018091  -0.137585  -0.268103  0.02081  3.834037  0.014
C  C19  1  0.74223062  0.59469814  0.41824406  1  -0.05937  0.018048  -0.137727  -0.268091  0.020783  3.831517  0.014
C  C20  1  0.67256710  0.82340718  0.41779889  1  -0.056483  0.018142  -0.137498  -0.26791  0.020853  3.833853  0.014
C  C21  1  0.25777827  0.40530918  0.58175421  1  -0.059535  0.017997  -0.13771  -0.268273  0.020728  3.831823  0.014
C  C22  1  0.33495659  0.33464116  0.67001962  1  -0.005854  0.005208  -0.149929  -0.093159  0.005819  3.925621  0.004
C  C23  1  0.66510742  0.66537784  0.32998041  1  -0.004828  0.005224  -0.149865  -0.093396  0.005836  3.925721  0.004
O  O24  1  0.29906673  0.93137054  0.59268988  1  -1.089391  0.032987  -0.301009  -0.541006  0.032038  2.186551  0.028
O  O25  1  0.70073466  0.33828466  0.40724921  1  -1.084068  0.033183  -0.300656  -0.54036  0.032278  2.181165  0.028
O  O26  1  0.70092170  0.06862439  0.40730740  1  -1.089428  0.03303  -0.300983  -0.54104  0.032072  2.186559  0.028
O  O27  1  0.29925105  0.66171974  0.59275645  1  -1.08404  0.033118  -0.300711  -0.54029  0.032223  2.181065  0.028
O  O28  1  0.73876947  0.97871919  0.80128029  1  -0.771554  -0.003222  -0.709936  -0.619511  -0.001016  1.773984  -0.003
O  O29  1  0.93832025  0.17990928  0.20583189  1  -0.773459  -0.003218  -0.711212  -0.621242  -0.001021  1.776894  -0.003
O  O30  1  0.26115166  0.02124667  0.19870255  1  -0.771971  -0.003111  -0.709929  -0.619648  -0.000946  1.773712  -0.003
O  O31  1  0.06163020  0.82007416  0.79417370  1  -0.773481  -0.003332  -0.711182  -0.621198  -0.001093  1.777087  -0.003
O  O32  1  0.46126475  0.15153594  0.78197860  1  -1.045759  0.030396  -0.276828  -0.459838  0.02949  2.132077  0.026
O  O33  1  0.67943973  0.36997109  0.21922763  1  -1.037993  0.02976  -0.276566  -0.460538  0.028803  2.13067  0.025
O  O34  1  0.53864284  0.84844481  0.21802871  1  -1.045639  0.030559  -0.276846  -0.45991  0.029635  2.132216  0.026
O  O35  1  0.32052589  0.63001598  0.78076905  1  -1.038062  0.029589  -0.276519  -0.460501  0.028651  2.130679  0.025
F  F36  1  0.47926288  0.11563836  0.99986552  1  -0.643215  -0.002034  -0.392065  -0.555962  -0.000741  1.092157  -0.002
F  F37  1  0.52070250  0.88435458  0.00014129  1  -0.643276  -0.002033  -0.392086  -0.555988  -0.00074  1.092147  -0.002
