# generated using pymatgen
data_LiH8C4IO
_symmetry_space_group_name_H-M   'P 1'
_cell_length_a   4.46552734
_cell_length_b   8.74344088
_cell_length_c   8.96936999
_cell_angle_alpha   102.63396012
_cell_angle_beta   99.73245329
_cell_angle_gamma   102.42226730
_symmetry_Int_Tables_number   1
_chemical_formula_structural   LiH8C4IO
_chemical_formula_sum   'Li2 H16 C8 I2 O2'
_cell_volume   325.02739379
_cell_formula_units_Z   2
loop_
 _symmetry_equiv_pos_site_id
 _symmetry_equiv_pos_as_xyz
  1  'x, y, z'
loop_
 _atom_site_type_symbol
 _atom_site_label
 _atom_site_symmetry_multiplicity
 _atom_site_fract_x
 _atom_site_fract_y
 _atom_site_fract_z
 _atom_site_occupancy
 _atom_site_pbe_bader_spin_density
 _atom_site_pbe_cm5_charge
 _atom_site_pbe_ddec_charge
 _atom_site_pbe_ddec_spin_density
 _atom_site_pbe_ddec_sum_bond_order
 _atom_site_pbe_magmom
Li  Li0  1  0.76866745  0.11551610  0.95026765  1  0  0.251054  0.695452  0  0.642317  0
Li  Li1  1  0.23133484  0.88447756  0.04972718  1  0  0.251051  0.695454  0  0.642307  0
H  H2  1  0.79997249  0.00812553  0.60026428  1  0  0.105816  0.077705  0  0.996226  0
H  H3  1  0.20002944  0.99187661  0.39973120  1  0  0.105789  0.077688  0  0.996178  0
H  H4  1  0.16683765  0.14318351  0.71531589  1  0  0.100166  0.053502  0  1.034714  0
H  H5  1  0.83316090  0.85681621  0.28468216  1  0  0.100169  0.053495  0  1.034703  0
H  H6  1  0.15038709  0.26970550  0.50630267  1  0  0.089215  0.090638  0  1.016769  0
H  H7  1  0.84961622  0.73029910  0.49369901  1  0  0.089215  0.090645  0  1.016753  0
H  H8  1  0.74110669  0.18815044  0.43446788  1  0  0.081407  0.08723  0  1.03242  0
H  H9  1  0.25889431  0.81185415  0.56553250  1  0  0.081389  0.087228  0  1.032438  0
H  H10  1  0.64177369  0.42021538  0.57784873  1  0  0.085227  0.084058  0  1.014622  0
H  H11  1  0.35823026  0.57979044  0.42215438  1  0  0.085231  0.084053  0  1.014595  0
H  H12  1  0.05054913  0.51115536  0.64825886  1  0  0.086085  0.102332  0  1.013668  0
H  H13  1  0.94945835  0.48884808  0.35174959  1  0  0.0861  0.102301  0  1.01375  0
H  H14  1  0.07548250  0.42408289  0.87970809  1  0  0.090664  0.047744  0  1.024933  0
H  H15  1  0.92451220  0.57591322  0.12029560  1  0  0.090657  0.047735  0  1.024905  0
H  H16  1  0.66645275  0.41924594  0.84834562  1  0  0.096586  0.071975  0  1.008998  0
H  H17  1  0.33353547  0.58074649  0.15165344  1  0  0.096611  0.072015  0  1.009  0
C  C18  1  0.92583927  0.13597394  0.65459302  1  0  -0.069576  0.033608  0  3.845787  0
C  C19  1  0.07416156  0.86402578  0.34540522  1  0  -0.069559  0.033622  0  3.845777  0
C  C20  1  0.92560889  0.24512969  0.54214030  1  0  -0.169914  -0.179779  0  3.880149  0
C  C21  1  0.07439383  0.75487369  0.45786108  1  0  -0.169901  -0.179791  0  3.880127  0
C  C22  1  0.86337463  0.40185783  0.63568372  1  0  -0.171528  -0.175097  0  3.873542  0
C  C23  1  0.13663222  0.59814439  0.36432330  1  0  -0.171523  -0.175036  0  3.873559  0
C  C24  1  0.84492386  0.37286645  0.79597513  1  0  -0.073705  0.037614  0  3.856098  0
C  C25  1  0.15507424  0.62713208  0.20402710  1  0  -0.073742  0.037539  0  3.856159  0
I  I26  1  0.37497091  0.21751197  0.12779237  1  0  -0.182586  -0.686798  0  1.111919  0
I  I27  1  0.62503021  0.78248408  0.87219953  1  0  -0.182583  -0.686803  0  1.111937  0
O  O28  1  0.75834652  0.19778181  0.76984465  1  0  -0.318917  -0.340183  0  2.534145  0
O  O29  1  0.24165087  0.80221549  0.23015392  1  0  -0.318899  -0.340148  0  2.534097  0
