# generated using pymatgen
data_NaH7(C2O3)2
_symmetry_space_group_name_H-M   'P 1'
_cell_length_a   6.19954729
_cell_length_b   7.79957243
_cell_length_c   8.01660664
_cell_angle_alpha   116.37189628
_cell_angle_beta   103.10796264
_cell_angle_gamma   101.12395427
_symmetry_Int_Tables_number   1
_chemical_formula_structural   NaH7(C2O3)2
_chemical_formula_sum   'Na2 H14 C8 O12'
_cell_volume   318.51213618
_cell_formula_units_Z   2
loop_
 _symmetry_equiv_pos_site_id
 _symmetry_equiv_pos_as_xyz
  1  'x, y, z'
loop_
 _atom_site_type_symbol
 _atom_site_label
 _atom_site_symmetry_multiplicity
 _atom_site_fract_x
 _atom_site_fract_y
 _atom_site_fract_z
 _atom_site_occupancy
 _atom_site_hle17_bader_spin_density
 _atom_site_hle17_ddec_charge
 _atom_site_hle17_ddec_spin_density
 _atom_site_hle17_ddec_sum_bond_order
 _atom_site_hle17_magmom
 _atom_site_hse06_10hf_bader_spin_density
 _atom_site_hse06_10hf_ddec_charge
 _atom_site_hse06_10hf_ddec_spin_density
 _atom_site_hse06_10hf_ddec_sum_bond_order
 _atom_site_hse06_10hf_magmom
 _atom_site_hse06_bader_spin_density
 _atom_site_hse06_ddec_charge
 _atom_site_hse06_ddec_spin_density
 _atom_site_hse06_ddec_sum_bond_order
 _atom_site_hse06_magmom
 _atom_site_pbe_bader_spin_density
 _atom_site_pbe_cm5_charge
 _atom_site_pbe_ddec_charge
 _atom_site_pbe_ddec_spin_density
 _atom_site_pbe_ddec_sum_bond_order
 _atom_site_pbe_magmom
Na  Na0  1  0.48129711  0.73649625  0.65616751  1  0  0.89876  0  0.370953  0  0  0.855769  0  0.522449  0  0  0.865768  0  0.500577  0  0  0.654971  0.8485  0  0.537986  0
Na  Na1  1  0.51870640  0.26350602  0.34383598  1  0  0.898764  0  0.370954  0  0  0.855788  0  0.522434  0  0  0.865784  0  0.500559  0  0  0.654973  0.848517  0  0.537967  0
H  H2  1  0.24002497  0.99696487  0.91800393  1  0  0.403044  0  0.894602  0  0  0.36861  0  0.976668  0  0  0.382342  0  0.962708  0  0  0.30479  0.359129  0  0.986115  0
H  H3  1  0.75997266  0.00303125  0.08199101  1  0  0.403027  0  0.894626  0  0  0.368594  0  0.976689  0  0  0.382327  0  0.962728  0  0  0.304774  0.359113  0  0.986138  0
H  H4  1  0.75705765  0.65948434  0.39700601  1  0  0.430113  0  0.8747  0  0  0.397459  0  0.941559  0  0  0.408385  0  0.925425  0  0  0.291322  0.389744  0  0.952941  0
H  H5  1  0.24294486  0.34051948  0.60299923  1  0  0.430118  0  0.874689  0  0  0.397439  0  0.941584  0  0  0.408368  0  0.925446  0  0  0.29131  0.389725  0  0.952964  0
H  H6  1  0.90236782  0.68529149  0.59936090  1  0  0.427331  0  0.865084  0  0  0.398775  0  0.925645  0  0  0.408419  0  0.911192  0  0  0.301806  0.391968  0  0.935834  0
H  H7  1  0.09764129  0.31471228  0.40064539  1  0  0.427366  0  0.865024  0  0  0.398804  0  0.925596  0  0  0.40845  0  0.91114  0  0  0.301818  0.391995  0  0.935788  0
H  H8  1  0.27096640  0.00694620  0.60338444  1  0  0.416219  0  0.888451  0  0  0.3854  0  0.952663  0  0  0.396623  0  0.935996  0  0  0.28547  0.3775  0  0.964378  0
H  H9  1  0.72903599  0.99305756  0.39661701  1  0  0.41613  0  0.888569  0  0  0.385343  0  0.95272  0  0  0.396563  0  0.936057  0  0  0.285459  0.377444  0  0.964434  0
H  H10  1  0.26072053  0.88245311  0.38558769  1  0  0.415582  0  0.887167  0  0  0.389105  0  0.945507  0  0  0.398756  0  0.931108  0  0  0.290575  0.382314  0  0.955634  0
H  H11  1  0.73928685  0.11755062  0.61441581  1  0  0.415578  0  0.887159  0  0  0.389091  0  0.94552  0  0  0.398744  0  0.931117  0  0  0.290545  0.3823  0  0.955647  0
H  H12  1  0.01462414  0.47272397  0.74962820  1  0  0.104  0  0.955237  0  0  0.110351  0  1.020274  0  0  0.11368  0  1.018143  0  0  0.114717  0.10789  0  1.02199  0
H  H13  1  0.98537240  0.52726918  0.25036905  1  0  0.104  0  0.955258  0  0  0.110332  0  1.020315  0  0  0.113658  0  1.018186  0  0  0.114725  0.107872  0  1.02203  0
H  H14  1  0.32097333  0.60046392  0.16679433  1  0  0.110427  0  0.937092  0  0  0.119757  0  0.994765  0  0  0.122541  0  0.994219  0  0  0.122078  0.117759  0  0.99529  0
H  H15  1  0.67902359  0.39953841  0.83320812  1  0  0.110419  0  0.937143  0  0  0.119742  0  0.994812  0  0  0.122527  0  0.994266  0  0  0.122073  0.117744  0  0.995336  0
C  C16  1  0.16959335  0.78571710  0.98669347  1  0  0.706  0  3.739594  0  0  0.650018  0  4.05043  0  0  0.683667  0  4.04028  0  0  0.242715  0.62707  0  4.056871  0
C  C17  1  0.83039996  0.21427280  0.01329066  1  0  0.706145  0  3.739578  0  0  0.65008  0  4.050526  0  0  0.683739  0  4.040354  0  0  0.242742  0.62712  0  4.056986  0
C  C18  1  0.05102062  0.56470829  0.90925974  1  0  -0.152682  0  3.54177  0  0  -0.166017  0  3.775142  0  0  -0.171043  0  3.785333  0  0  -0.079419  -0.162535  0  3.768158  0
C  C19  1  0.94897769  0.43528939  0.09073848  1  0  -0.152693  0  3.541711  0  0  -0.165993  0  3.775093  0  0  -0.171016  0  3.785277  0  0  -0.079426  -0.162509  0  3.768114  0
C  C20  1  0.17078565  0.48108303  0.03370613  1  0  -0.136343  0  3.525541  0  0  -0.143601  0  3.759324  0  0  -0.148908  0  3.770978  0  0  -0.072033  -0.14001  0  3.751298  0
C  C21  1  0.82921170  0.51891625  0.96629510  1  0  -0.136363  0  3.525662  0  0  -0.143603  0  3.759416  0  0  -0.148913  0  3.771079  0  0  -0.072019  -0.140011  0  3.751389  0
C  C22  1  0.25230698  0.30317977  0.93118614  1  0  0.705065  0  3.820202  0  0  0.64667  0  4.13295  0  0  0.679466  0  4.126218  0  0  0.2265  0.624495  0  4.136664  0
C  C23  1  0.74769271  0.69682106  0.06881862  1  0  0.704986  0  3.820205  0  0  0.646582  0  4.132978  0  0  0.679376  0  4.126253  0  0  0.226509  0.624408  0  4.136691  0
O  O24  1  0.25177971  0.91421991  0.16701799  1  0  -0.608438  0  1.984439  0  0  -0.559943  0  2.216245  0  0  -0.580919  0  2.204509  0  0  -0.321679  -0.545716  0  2.224144  0
O  O25  1  0.74821773  0.08578389  0.83298267  1  0  -0.608476  0  1.98474  0  0  -0.559947  0  2.216597  0  0  -0.580929  0  2.204851  0  0  -0.321681  -0.54572  0  2.224506  0
O  O26  1  0.17866180  0.83418186  0.84809314  1  0  -0.595289  0  2.105852  0  0  -0.532892  0  2.331868  0  0  -0.556592  0  2.315812  0  0  -0.328297  -0.516442  0  2.342268  0
O  O27  1  0.82133305  0.16581575  0.15189949  1  0  -0.595362  0  2.105663  0  0  -0.532948  0  2.331722  0  0  -0.55665  0  2.315657  0  0  -0.328316  -0.516488  0  2.342117  0
O  O28  1  0.29886632  0.21277441  0.02842312  1  0  -0.687416  0  2.012265  0  0  -0.636639  0  2.258933  0  0  -0.661733  0  2.248108  0  0  -0.375376  -0.619149  0  2.265545  0
O  O29  1  0.70113719  0.78722786  0.97158037  1  0  -0.687372  0  2.012283  0  0  -0.636597  0  2.258969  0  0  -0.661687  0  2.248132  0  0  -0.375378  -0.619107  0  2.265582  0
O  O30  1  0.27251720  0.25313397  0.76447683  1  0  -0.624195  0  2.026153  0  0  -0.552921  0  2.241809  0  0  -0.578869  0  2.232361  0  0  -0.28785  -0.534993  0  2.247892  0
O  O31  1  0.72748301  0.74686833  0.23552614  1  0  -0.624107  0  2.026102  0  0  -0.552884  0  2.241797  0  0  -0.578827  0  2.232349  0  0  -0.28787  -0.534959  0  2.24788  0
O  O32  1  0.74642755  0.61381632  0.49389495  1  0  -0.919781  0  1.741519  0  0  -0.877982  0  1.91842  0  0  -0.893459  0  1.884415  0  0  -0.694102  -0.867089  0  1.942192  0
O  O33  1  0.25357765  0.38618597  0.50611007  1  0  -0.919814  0  1.741459  0  0  -0.877997  0  1.918389  0  0  -0.893477  0  1.884378  0  0  -0.694106  -0.867104  0  1.942163  0
O  O34  1  0.26229660  0.87032101  0.50283683  1  0  -0.892423  0  1.781795  0  0  -0.851918  0  1.95335  0  0  -0.868129  0  1.920843  0  0  -0.676185  -0.840431  0  1.975996  0
O  O35  1  0.73770744  0.12968273  0.49716488  1  0  -0.892322  0  1.781868  0  0  -0.851827  0  1.95341  0  0  -0.868034  0  1.920899  0  0  -0.676134  -0.840342  0  1.976046  0
