# generated using pymatgen
data_MnH4C5N2O5
_symmetry_space_group_name_H-M   'P 1'
_cell_length_a   7.06283471
_cell_length_b   7.50285298
_cell_length_c   7.56466243
_cell_angle_alpha   89.99982168
_cell_angle_beta   117.23105959
_cell_angle_gamma   89.99999956
_symmetry_Int_Tables_number   1
_chemical_formula_structural   MnH4C5N2O5
_chemical_formula_sum   'Mn2 H8 C10 N4 O10'
_cell_volume   356.43396161
_cell_formula_units_Z   2
loop_
 _symmetry_equiv_pos_site_id
 _symmetry_equiv_pos_as_xyz
  1  'x, y, z'
loop_
 _atom_site_type_symbol
 _atom_site_label
 _atom_site_symmetry_multiplicity
 _atom_site_fract_x
 _atom_site_fract_y
 _atom_site_fract_z
 _atom_site_occupancy
 _atom_site_pbe_cm5_charge
 _atom_site_pbe_ddec_charge
 _atom_site_pbe_ddec_spin_density
 _atom_site_pbe_ddec_sum_bond_order
 _atom_site_pbe_magmom
Mn  Mn0  1  0.28081711  0.74166030  0.15706122  1  0.608152  1.014773  4.654913  2.335411  4.463
Mn  Mn1  1  0.71918176  0.24166010  0.84293867  1  0.608157  1.01478  4.654907  2.335392  4.463
H  H2  1  0.84654684  0.63222707  0.28336886  1  0.143686  0.110408  -0.000356  0.995093  0.0
H  H3  1  0.15345225  0.13222859  0.71663146  1  0.143679  0.110374  -0.000356  0.995151  0.0
H  H4  1  0.95105382  0.53540335  0.63599180  1  0.317143  0.279743  -0.00015  0.981951  0.001
H  H5  1  0.04894706  0.03540463  0.36400958  1  0.31714  0.279737  -0.00015  0.981962  0.001
H  H6  1  0.86107809  0.86060181  0.95464390  1  0.299147  0.391576  0.001071  0.949732  0.003
H  H7  1  0.13892055  0.36060142  0.04535420  1  0.299146  0.39158  0.001071  0.949731  0.003
H  H8  1  0.87754608  0.67347581  0.86032714  1  0.300555  0.388531  0.000716  0.948204  0.003
H  H9  1  0.12245134  0.17347513  0.13967101  1  0.300555  0.388534  0.000716  0.948202  0.003
C  C10  1  0.00912717  0.60743365  0.39384400  1  0.167613  0.198615  0.00929  3.88791  0.009
C  C11  1  0.99087197  0.10743419  0.60615642  1  0.167632  0.198658  0.00929  3.887943  0.009
C  C12  1  0.56518172  0.57138579  0.55438582  1  0.227042  0.577584  0.017581  4.182816  0.015
C  C13  1  0.43481750  0.07138682  0.44561474  1  0.227029  0.577548  0.017579  4.182917  0.015
C  C14  1  0.35199632  0.56593721  0.54540684  1  0.0864  -0.003313  0.009852  3.98122  0.008
C  C15  1  0.64800291  0.06593821  0.45459242  1  0.086415  -0.003276  0.009852  3.981277  0.008
C  C16  1  0.27636990  0.52526846  0.68201978  1  0.098333  0.000793  0.002168  3.913888  0.001
C  C17  1  0.72362940  0.02526990  0.31798096  1  0.098296  0.000774  0.002168  3.913913  0.001
C  C18  1  0.37689996  0.46867366  0.89279827  1  0.233051  0.583345  0.032813  4.208716  0.029
C  C19  1  0.62310007  0.96867269  0.10720140  1  0.233058  0.583358  0.032812  4.208765  0.029
N  N20  1  0.18326058  0.61899596  0.36889944  1  -0.33843  -0.347119  0.035819  3.50177  0.017
N  N21  1  0.81673695  0.11899776  0.63110025  1  -0.338445  -0.347158  0.035818  3.501803  0.017
N  N22  1  0.05982150  0.55435622  0.58093154  1  -0.357411  -0.202598  0.005092  3.636748  0.005
N  N23  1  0.94017934  0.05435734  0.41906844  1  -0.357397  -0.202599  0.005092  3.636731  0.005
O  O24  1  0.57944431  0.64524725  0.41046937  1  -0.290933  -0.53913  0.047892  2.279107  0.036
O  O25  1  0.42055475  0.14524650  0.58952826  1  -0.29092  -0.539086  0.047891  2.279165  0.036
O  O26  1  0.72792599  0.50347805  0.70428919  1  -0.30428  -0.58124  0.039874  2.334977  0.024
O  O27  1  0.27207495  0.00347822  0.29571099  1  -0.304276  -0.581258  0.039875  2.335006  0.024
O  O28  1  0.55173241  0.38518930  0.96810218  1  -0.29821  -0.531735  0.052247  2.300378  0.036
O  O29  1  0.44826778  0.88518990  0.03189782  1  -0.298215  -0.531748  0.052246  2.300444  0.036
O  O30  1  0.27205434  0.50754406  0.98930718  1  -0.314779  -0.5788  0.041175  2.370596  0.022
O  O31  1  0.72794660  0.00754378  0.01069431  1  -0.314778  -0.57879  0.041176  2.370589  0.022
O  O32  1  0.96093794  0.77779201  0.93612439  1  -0.57708  -0.761428  0.050005  2.120324  0.033
O  O33  1  0.03906086  0.27779156  0.06387403  1  -0.577076  -0.761432  0.050005  2.120323  0.033
