# generated using pymatgen
data_ZnH4(CN2)4
_symmetry_space_group_name_H-M   'P 1'
_cell_length_a   7.46984997
_cell_length_b   8.20682652
_cell_length_c   8.20710738
_cell_angle_alpha   94.66077726
_cell_angle_beta   115.86272371
_cell_angle_gamma   115.86246917
_symmetry_Int_Tables_number   1
_chemical_formula_structural   ZnH4(CN2)4
_chemical_formula_sum   'Zn2 H8 C8 N16'
_cell_volume   383.79949572
_cell_formula_units_Z   2
loop_
 _symmetry_equiv_pos_site_id
 _symmetry_equiv_pos_as_xyz
  1  'x, y, z'
loop_
 _atom_site_type_symbol
 _atom_site_label
 _atom_site_symmetry_multiplicity
 _atom_site_fract_x
 _atom_site_fract_y
 _atom_site_fract_z
 _atom_site_occupancy
 _atom_site_hle17_bader_spin_density
 _atom_site_hle17_ddec_charge
 _atom_site_hle17_ddec_spin_density
 _atom_site_hle17_ddec_sum_bond_order
 _atom_site_hle17_magmom
 _atom_site_hse06_10hf_bader_spin_density
 _atom_site_hse06_10hf_ddec_charge
 _atom_site_hse06_10hf_ddec_spin_density
 _atom_site_hse06_10hf_ddec_sum_bond_order
 _atom_site_hse06_10hf_magmom
 _atom_site_hse06_bader_spin_density
 _atom_site_hse06_ddec_charge
 _atom_site_hse06_ddec_spin_density
 _atom_site_hse06_ddec_sum_bond_order
 _atom_site_hse06_magmom
 _atom_site_pbe_bader_spin_density
 _atom_site_pbe_cm5_charge
 _atom_site_pbe_ddec_charge
 _atom_site_pbe_ddec_spin_density
 _atom_site_pbe_ddec_sum_bond_order
 _atom_site_pbe_magmom
Zn  Zn0  1  0.50000137  0.50000081  0.00000142  1  0  0.900502  0  2.065702  0  0  0.737721  0  2.522692  0  0  0.775279  0  2.483518  0  0  0.716617  0.712082  0  2.549147  0
Zn  Zn1  1  0.50000263  0.00000185  0.50000199  1  0  0.900422  0  2.06585  0  0  0.737582  0  2.522908  0  0  0.775148  0  2.483726  0  0  0.716569  0.71194  0  2.54936  0
H  H2  1  0.92105421  0.58349763  0.94098383  1  0  0.082322  0  0.961721  0  0  0.083941  0  1.041022  0  0  0.08609  0  1.037996  0  0  0.119148  0.082284  0  1.04324  0
H  H3  1  0.07896167  0.05903640  0.41651292  1  0  0.082196  0  0.961901  0  0  0.083917  0  1.041139  0  0  0.086065  0  1.038115  0  0  0.119111  0.082256  0  1.043364  0
H  H4  1  0.07894625  0.41650269  0.05901662  1  0  0.082327  0  0.961728  0  0  0.083935  0  1.041039  0  0  0.086084  0  1.038013  0  0  0.119147  0.082278  0  1.043256  0
H  H5  1  0.92103730  0.94096392  0.58348694  1  0  0.082215  0  0.961939  0  0  0.083938  0  1.041153  0  0  0.086078  0  1.038151  0  0  0.119134  0.082276  0  1.043377  0
H  H6  1  0.10661433  0.77157562  0.77158867  1  0  0.127823  0  0.961418  0  0  0.131778  0  1.027187  0  0  0.134995  0  1.027254  0  0  0.112245  0.129489  0  1.027347  0
H  H7  1  0.89338374  0.22842327  0.22840828  1  0  0.127829  0  0.961401  0  0  0.13177  0  1.027186  0  0  0.134988  0  1.027253  0  0  0.112219  0.129478  0  1.027345  0
H  H8  1  0.43120909  0.74573979  0.74573425  1  0  0.073008  0  0.955864  0  0  0.074526  0  1.032112  0  0  0.07677  0  1.028752  0  0  0.12891  0.072793  0  1.034606  0
H  H9  1  0.56878897  0.25425910  0.25426513  1  0  0.072991  0  0.955842  0  0  0.074483  0  1.032125  0  0  0.07672  0  1.028764  0  0  0.128894  0.072751  0  1.034617  0
C  C10  1  0.85526065  0.66347001  0.86013618  1  0  0.199648  0  3.635665  0  0  0.159506  0  3.891322  0  0  0.171373  0  3.906912  0  0  0.071646  0.151816  0  3.880876  0
C  C11  1  0.14474029  0.13987597  0.33652720  1  0  0.199705  0  3.635828  0  0  0.15946  0  3.891464  0  0  0.171328  0  3.907057  0  0  0.071703  0.151772  0  3.881008  0
C  C12  1  0.14473684  0.33653031  0.13986430  1  0  0.199608  0  3.635661  0  0  0.159454  0  3.891318  0  0  0.171322  0  3.906908  0  0  0.071605  0.151764  0  3.880867  0
C  C13  1  0.85526295  0.86012865  0.66347471  1  0  0.19969  0  3.635803  0  0  0.159466  0  3.89144  0  0  0.171334  0  3.907028  0  0  0.071683  0.151779  0  3.880983  0
C  C14  1  0.95586466  0.76598645  0.76599413  1  0  -0.153231  0  3.666289  0  0  -0.163056  0  3.918643  0  0  -0.175601  0  3.940218  0  0  -0.076564  -0.155272  0  3.904546  0
C  C15  1  0.04413580  0.23401387  0.23400754  1  0  -0.153229  0  3.666348  0  0  -0.163018  0  3.918676  0  0  -0.175564  0  3.940254  0  0  -0.076535  -0.155231  0  3.904573  0
C  C16  1  0.58215181  0.75130023  0.75130670  1  0  0.308062  0  3.668358  0  0  0.254103  0  3.929254  0  0  0.269239  0  3.942225  0  0  0.184918  0.244258  0  3.920322  0
C  C17  1  0.41784568  0.24870010  0.24869500  1  0  0.308128  0  3.668372  0  0  0.254181  0  3.929277  0  0  0.269327  0  3.94224  0  0  0.184936  0.244336  0  3.920348  0
N  N18  1  0.66857852  0.65685367  0.85334644  1  0  -0.353772  0  3.224109  0  0  -0.272682  0  3.482703  0  0  -0.294585  0  3.499402  0  0  -0.3114  -0.258251  0  3.471325  0
N  N19  1  0.33142599  0.14666085  0.34314536  1  0  -0.353613  0  3.223873  0  0  -0.272567  0  3.482557  0  0  -0.29447  0  3.499252  0  0  -0.311362  -0.258136  0  3.471176  0
N  N20  1  0.33141953  0.34314522  0.14665172  1  0  -0.353778  0  3.224068  0  0  -0.272671  0  3.482641  0  0  -0.294574  0  3.499336  0  0  -0.311385  -0.258241  0  3.471264  0
N  N21  1  0.66857263  0.85333659  0.65685291  1  0  -0.35359  0  3.22383  0  0  -0.272554  0  3.482521  0  0  -0.294456  0  3.499217  0  0  -0.311373  -0.258121  0  3.471134  0
N  N22  1  0.81785917  0.66487481  0.27904065  1  0  -0.488445  0  2.62554  0  0  -0.476796  0  2.909936  0  0  -0.493209  0  2.917675  0  0  -0.256952  -0.465265  0  2.904486  0
N  N23  1  0.18215765  0.72095188  0.33510927  1  0  -0.488676  0  2.6253  0  0  -0.477052  0  2.909737  0  0  -0.493471  0  2.917474  0  0  -0.257029  -0.465528  0  2.904298  0
N  N24  1  0.18214223  0.33512695  0.72095786  1  0  -0.488459  0  2.625513  0  0  -0.476812  0  2.909915  0  0  -0.493228  0  2.917654  0  0  -0.25695  -0.465286  0  2.904464  0
N  N25  1  0.81784580  0.27904843  0.66488994  1  0  -0.488676  0  2.6255  0  0  -0.477029  0  2.909914  0  0  -0.493446  0  2.917649  0  0  -0.257069  -0.465508  0  2.904473  0
N  N26  1  0.00000520  0.69322632  0.30675959  1  0  0.410897  0  4.224322  0  0  0.449757  0  4.500237  0  0  0.466527  0  4.529005  0  0  0.087656  0.43855  0  4.480508  0
N  N27  1  0.99999379  0.30677400  0.69323905  1  0  0.410913  0  4.224504  0  0  0.449762  0  4.500416  0  0  0.466533  0  4.529183  0  0  0.087691  0.438555  0  4.480684  0
N  N28  1  0.60919970  0.30091639  0.97400722  1  0  -0.483901  0  2.651975  0  0  -0.464299  0  2.937331  0  0  -0.479912  0  2.943116  0  0  -0.246866  -0.453614  0  2.933453  0
N  N29  1  0.39076826  0.02597661  0.69905445  1  0  -0.483777  0  2.65237  0  0  -0.464084  0  2.937624  0  0  -0.479699  0  2.943416  0  0  -0.246771  -0.453402  0  2.933747  0
N  N30  1  0.39080317  0.69908536  0.02599553  1  0  -0.483764  0  2.652063  0  0  -0.464154  0  2.937416  0  0  -0.479766  0  2.943205  0  0  -0.246801  -0.453468  0  2.933534  0
N  N31  1  0.60923646  0.97402801  0.30094805  1  0  -0.483765  0  2.652243  0  0  -0.464049  0  2.937464  0  0  -0.479666  0  2.943255  0  0  -0.246729  -0.453361  0  2.933584  0
N  N32  1  0.49998155  0.16493532  0.83503813  1  0  0.421256  0  4.212185  0  0  0.45584  0  4.487856  0  0  0.473292  0  4.51517  0  0  0.095028  0.444183  0  4.469366  0
N  N33  1  0.50001800  0.83506356  0.16495940  1  0  0.421136  0  4.212193  0  0  0.455703  0  4.487901  0  0  0.473155  0  4.515213  0  0  0.094927  0.444044  0  4.469412  0
