# generated using pymatgen
data_Cu2H4C6BrN5
_symmetry_space_group_name_H-M   'P 1'
_cell_length_a   3.74325675
_cell_length_b   9.99534289
_cell_length_c   11.55928204
_cell_angle_alpha   103.59394420
_cell_angle_beta   90.14089776
_cell_angle_gamma   100.68840548
_symmetry_Int_Tables_number   1
_chemical_formula_structural   Cu2H4C6BrN5
_chemical_formula_sum   'Cu4 H8 C12 Br2 N10'
_cell_volume   412.60238963
_cell_formula_units_Z   2
loop_
 _symmetry_equiv_pos_site_id
 _symmetry_equiv_pos_as_xyz
  1  'x, y, z'
loop_
 _atom_site_type_symbol
 _atom_site_label
 _atom_site_symmetry_multiplicity
 _atom_site_fract_x
 _atom_site_fract_y
 _atom_site_fract_z
 _atom_site_occupancy
 _atom_site_pbe_bader_spin_density
 _atom_site_pbe_cm5_charge
 _atom_site_pbe_ddec_charge
 _atom_site_pbe_ddec_spin_density
 _atom_site_pbe_ddec_sum_bond_order
 _atom_site_pbe_magmom
Cu  Cu0  1  0.71540766  0.47518363  0.18248202  1  0  0.431583  0.275591  0  2.488717  0
Cu  Cu1  1  0.76261339  0.47520813  0.68265723  1  0  0.431729  0.27554  0  2.48885  0
Cu  Cu2  1  0.79876741  0.28259617  0.86578045  1  0  0.455601  0.270079  0  2.269026  0
Cu  Cu3  1  0.48501266  0.28211841  0.36665077  1  0  0.456168  0.268869  0  2.266598  0
H  H4  1  0.44414731  0.89367649  0.06485998  1  0  0.108562  0.117168  0  1.023767  0
H  H5  1  0.45094011  0.89197481  0.56512875  1  0  0.108825  0.117117  0  1.025526  0
H  H6  1  0.91763333  0.77756445  0.72303818  1  0  0.101742  0.103868  0  1.094462  0
H  H7  1  0.85557448  0.77838257  0.22363646  1  0  0.101772  0.103587  0  1.094247  0
H  H8  1  0.46976338  0.13151310  0.02952713  1  0  0.091538  0.084438  0  1.069676  0
H  H9  1  0.66114677  0.13031263  0.53089853  1  0  0.091922  0.084596  0  1.068801  0
H  H10  1  0.94918256  0.02245318  0.70640864  1  0  0.105031  0.087879  0  1.020636  0
H  H11  1  0.06936245  0.02335808  0.20782409  1  0  0.1048  0.087461  0  1.021551  0
C  C12  1  0.69998199  0.68222731  0.92682582  1  0  0.215152  0.232065  0  4.019635  0
C  C13  1  0.98252732  0.68164942  0.42685888  1  0  0.215293  0.231613  0  4.01516  0
C  C14  1  0.68389503  0.81532699  0.89818204  1  0  0.015319  0.075349  0  3.991146  0
C  C15  1  0.13026225  0.81490446  0.39854172  1  0  0.014488  0.074899  0  3.991393  0
C  C16  1  0.55459282  0.91791336  0.98359970  1  0  -0.083581  -0.158884  0  3.932075  0
C  C17  1  0.36345619  0.91690706  0.48415518  1  0  -0.084973  -0.16193  0  3.933358  0
C  C18  1  0.81447730  0.85150418  0.79386056  1  0  -0.086519  -0.163039  0  3.928663  0
C  C19  1  0.03387513  0.85176914  0.29457910  1  0  -0.085182  -0.15988  0  3.927996  0
C  C20  1  0.57169625  0.05065413  0.96504215  1  0  0.029255  0.087488  0  3.928267  0
C  C21  1  0.47809959  0.04991017  0.46616813  1  0  0.030673  0.089739  0  3.927533  0
C  C22  1  0.83054273  0.98798409  0.78307730  1  0  0.038629  0.094491  0  3.904283  0
C  C23  1  0.15435932  0.98834000  0.28425731  1  0  0.037573  0.092238  0  3.906024  0
Br  Br24  1  0.12628045  0.29561285  0.17520921  1  0  -0.239155  -0.440786  0  2.027683  0
Br  Br25  1  0.17295225  0.29575341  0.67575587  1  0  -0.2389  -0.440811  0  2.034477  0
N  N26  1  0.66806930  0.66872837  0.03989802  1  0  -0.207029  -0.239139  0  3.215697  0
N  N27  1  0.00191968  0.66811568  0.53994018  1  0  -0.207704  -0.23932  0  3.215704  0
N  N28  1  0.71860498  0.54030207  0.03794808  1  0  -0.156122  -0.009855  0  3.670337  0
N  N29  1  0.82437317  0.53967572  0.53791188  1  0  -0.155798  -0.009339  0  3.669997  0
N  N30  1  0.77549403  0.47455989  0.92654278  1  0  -0.177597  -0.022462  0  3.607193  0
N  N31  1  0.70093334  0.47396254  0.42644345  1  0  -0.177642  -0.021802  0  3.609064  0
N  N32  1  0.76734684  0.56263673  0.85476912  1  0  -0.263986  -0.196236  0  3.538025  0
N  N33  1  0.79604735  0.56202468  0.35468594  1  0  -0.263891  -0.195887  0  3.535811  0
N  N34  1  0.71645868  0.08806006  0.86727777  1  0  -0.378671  -0.197777  0  3.696727  0
N  N35  1  0.36960202  0.08793361  0.36862373  1  0  -0.378905  -0.19693  0  3.697103  0
