# generated using pymatgen
data_MgH4(CO3)2
_symmetry_space_group_name_H-M   'P 1'
_cell_length_a   5.48990790
_cell_length_b   6.87440545
_cell_length_c   8.06167820
_cell_angle_alpha   82.19612114
_cell_angle_beta   70.11590525
_cell_angle_gamma   66.47983703
_symmetry_Int_Tables_number   1
_chemical_formula_structural   MgH4(CO3)2
_chemical_formula_sum   'Mg2 H8 C4 O12'
_cell_volume   262.33820061
_cell_formula_units_Z   2
loop_
 _symmetry_equiv_pos_site_id
 _symmetry_equiv_pos_as_xyz
  1  'x, y, z'
loop_
 _atom_site_type_symbol
 _atom_site_label
 _atom_site_symmetry_multiplicity
 _atom_site_fract_x
 _atom_site_fract_y
 _atom_site_fract_z
 _atom_site_occupancy
 _atom_site_hle17_bader_spin_density
 _atom_site_hle17_ddec_charge
 _atom_site_hle17_ddec_spin_density
 _atom_site_hle17_ddec_sum_bond_order
 _atom_site_hle17_magmom
 _atom_site_hse06_10hf_bader_spin_density
 _atom_site_hse06_10hf_ddec_charge
 _atom_site_hse06_10hf_ddec_spin_density
 _atom_site_hse06_10hf_ddec_sum_bond_order
 _atom_site_hse06_10hf_magmom
 _atom_site_hse06_bader_spin_density
 _atom_site_hse06_ddec_charge
 _atom_site_hse06_ddec_spin_density
 _atom_site_hse06_ddec_sum_bond_order
 _atom_site_hse06_magmom
 _atom_site_pbe_bader_spin_density
 _atom_site_pbe_cm5_charge
 _atom_site_pbe_ddec_charge
 _atom_site_pbe_ddec_spin_density
 _atom_site_pbe_ddec_sum_bond_order
 _atom_site_pbe_magmom
Mg  Mg0  1  0.12495495  0.24999500  0.24995472  1  0  1.497667  0  1.110956  0  0  1.384022  0  1.370041  0  0  1.406617  0  1.336019  0  0  0.829716  1.368049  0  1.393885  0
Mg  Mg1  1  0.87504951  0.75000329  0.75004846  1  0  1.497615  0  1.111058  0  0  1.384023  0  1.370022  0  0  1.406616  0  1.336004  0  0  0.829708  1.368046  0  1.393877  0
H  H2  1  0.29983233  0.83651634  0.35654785  1  0  0.445463  0  0.847206  0  0  0.41278  0  0.911362  0  0  0.423903  0  0.894889  0  0  0.301411  0.404953  0  0.922951  0
H  H3  1  0.99294490  0.66350838  0.14348726  1  0  0.446139  0  0.846253  0  0  0.412912  0  0.911323  0  0  0.424078  0  0.894796  0  0  0.301336  0.405025  0  0.923001  0
H  H4  1  0.36370205  0.83641899  0.14344858  1  0  0.446767  0  0.845308  0  0  0.413344  0  0.910837  0  0  0.424526  0  0.894269  0  0  0.30141  0.405435  0  0.922556  0
H  H5  1  0.84353445  0.66351649  0.35655647  1  0  0.445842  0  0.846517  0  0  0.412985  0  0.910953  0  0  0.424095  0  0.894505  0  0  0.301545  0.405102  0  0.922623  0
H  H6  1  0.70016719  0.16348037  0.64345526  1  0  0.445449  0  0.847236  0  0  0.412775  0  0.911375  0  0  0.423893  0  0.894911  0  0  0.30142  0.404947  0  0.922966  0
H  H7  1  0.00705356  0.33648991  0.85651416  1  0  0.446111  0  0.8463  0  0  0.412874  0  0.911387  0  0  0.424045  0  0.894852  0  0  0.301282  0.404987  0  0.923065  0
H  H8  1  0.63629403  0.16358406  0.85655285  1  0  0.446739  0  0.845333  0  0  0.413348  0  0.910817  0  0  0.424519  0  0.894262  0  0  0.30143  0.405438  0  0.922536  0
H  H9  1  0.15646120  0.33648498  0.64344620  1  0  0.445901  0  0.846426  0  0  0.413032  0  0.910883  0  0  0.424144  0  0.89443  0  0  0.30156  0.405148  0  0.922553  0
C  C10  1  0.57348059  0.25008577  0.35288444  1  0  0.568787  0  3.884838  0  0  0.512291  0  4.192794  0  0  0.542638  0  4.182971  0  0  0.233037  0.491741  0  4.198921  0
C  C11  1  0.67635330  0.25013114  0.14695087  1  0  0.570747  0  3.885723  0  0  0.514286  0  4.19336  0  0  0.544657  0  4.183517  0  0  0.234466  0.493729  0  4.199506  0
C  C12  1  0.42652490  0.74990935  0.64711537  1  0  0.568854  0  3.884403  0  0  0.512359  0  4.192372  0  0  0.54272  0  4.182546  0  0  0.233042  0.491813  0  4.198498  0
C  C13  1  0.32364835  0.74987033  0.85305354  1  0  0.570606  0  3.885528  0  0  0.514131  0  4.193194  0  0  0.544474  0  4.183401  0  0  0.234346  0.493575  0  4.199337  0
O  O14  1  0.33150052  0.24692595  0.42798053  1  0  -0.634889  0  2.047947  0  0  -0.571489  0  2.274549  0  0  -0.594769  0  2.263802  0  0  -0.311209  -0.555418  0  2.281613  0
O  O15  1  0.50619855  0.25333999  0.07184723  1  0  -0.635797  0  2.050549  0  0  -0.572252  0  2.277271  0  0  -0.595594  0  2.266523  0  0  -0.311957  -0.556182  0  2.284353  0
O  O16  1  0.92157490  0.24684669  0.07186566  1  0  -0.636037  0  2.048483  0  0  -0.57255  0  2.27514  0  0  -0.59582  0  2.264377  0  0  -0.312323  -0.556536  0  2.282248  0
O  O17  1  0.74051198  0.25315461  0.42798097  1  0  -0.634705  0  2.048411  0  0  -0.571768  0  2.27547  0  0  -0.595007  0  2.264675  0  0  -0.311615  -0.555793  0  2.282604  0
O  O18  1  0.66852104  0.75306917  0.57201275  1  0  -0.634913  0  2.047619  0  0  -0.571551  0  2.27425  0  0  -0.594833  0  2.263497  0  0  -0.311219  -0.555486  0  2.281318  0
O  O19  1  0.49380568  0.74667100  0.92814972  1  0  -0.635721  0  2.05048  0  0  -0.572148  0  2.277199  0  0  -0.595492  0  2.266474  0  0  -0.311806  -0.556074  0  2.284267  0
O  O20  1  0.07842802  0.75315001  0.92813203  1  0  -0.635944  0  2.048412  0  0  -0.572504  0  2.275127  0  0  -0.59574  0  2.264344  0  0  -0.312326  -0.556485  0  2.282231  0
O  O21  1  0.25949164  0.74684368  0.57201716  1  0  -0.634735  0  2.048376  0  0  -0.571769  0  2.275401  0  0  -0.595022  0  2.264608  0  0  -0.31161  -0.555799  0  2.282539  0
O  O22  1  0.28722176  0.92537933  0.24998061  1  0  -0.940114  0  1.832892  0  0  -0.887434  0  2.024212  0  0  -0.904795  0  1.990253  0  0  -0.627941  -0.875225  0  2.047821  0
O  O23  1  0.96255764  0.57460709  0.25001829  1  0  -0.939883  0  1.833394  0  0  -0.887134  0  2.024908  0  0  -0.904542  0  1.991032  0  0  -0.627899  -0.874885  0  2.04858  0
O  O24  1  0.71277052  0.07462531  0.75001995  1  0  -0.94007  0  1.832918  0  0  -0.887418  0  2.024186  0  0  -0.904774  0  1.990253  0  0  -0.627955  -0.87521  0  2.047802  0
O  O25  1  0.03742169  0.42539755  0.74998170  1  0  -0.939877  0  1.833381  0  0  -0.887146  0  2.024944  0  0  -0.904538  0  1.991023  0  0  -0.627848  -0.874896  0  2.048615  0
