# generated using pymatgen
data_CuH6C9INO2
_symmetry_space_group_name_H-M   'P 1'
_cell_length_a   4.00206529
_cell_length_b   9.38923872
_cell_length_c   12.97608634
_cell_angle_alpha   96.25852954
_cell_angle_beta   95.76846596
_cell_angle_gamma   101.41530734
_symmetry_Int_Tables_number   1
_chemical_formula_structural   CuH6C9INO2
_chemical_formula_sum   'Cu2 H12 C18 I2 N2 O4'
_cell_volume   471.35594507
_cell_formula_units_Z   2
loop_
 _symmetry_equiv_pos_site_id
 _symmetry_equiv_pos_as_xyz
  1  'x, y, z'
loop_
 _atom_site_type_symbol
 _atom_site_label
 _atom_site_symmetry_multiplicity
 _atom_site_fract_x
 _atom_site_fract_y
 _atom_site_fract_z
 _atom_site_occupancy
 _atom_site_hle17_bader_spin_density
 _atom_site_hle17_ddec_charge
 _atom_site_hle17_ddec_spin_density
 _atom_site_hle17_ddec_sum_bond_order
 _atom_site_hle17_magmom
 _atom_site_hse06_10hf_bader_spin_density
 _atom_site_hse06_10hf_ddec_charge
 _atom_site_hse06_10hf_ddec_spin_density
 _atom_site_hse06_10hf_ddec_sum_bond_order
 _atom_site_hse06_10hf_magmom
 _atom_site_hse06_bader_spin_density
 _atom_site_hse06_ddec_charge
 _atom_site_hse06_ddec_spin_density
 _atom_site_hse06_ddec_sum_bond_order
 _atom_site_hse06_magmom
 _atom_site_pbe_bader_spin_density
 _atom_site_pbe_cm5_charge
 _atom_site_pbe_ddec_charge
 _atom_site_pbe_ddec_spin_density
 _atom_site_pbe_ddec_sum_bond_order
 _atom_site_pbe_magmom
Cu  Cu0  1  0.80354278  0.09481773  0.51923937  1  0  0.216004  0  2.256095  0  0  0.14001  0  2.741316  0  0  0.151764  0  2.684182  0  0  0.243521  0.134737  0  2.778759  0
Cu  Cu1  1  0.19643656  0.90518575  0.48075310  1  0  0.216033  0  2.256156  0  0  0.140044  0  2.741372  0  0  0.15188  0  2.684185  0  0  0.243548  0.134767  0  2.77882  0
H  H2  1  0.43827634  0.34722279  0.87319075  1  0  0.121615  0  0.962673  0  0  0.12803  0  1.028255  0  0  0.13156  0  1.026798  0  0  0.112885  0.125529  0  1.029132  0
H  H3  1  0.56171265  0.65276972  0.12680654  1  0  0.12163  0  0.962682  0  0  0.128055  0  1.02824  0  0  0.131578  0  1.026797  0  0  0.112891  0.125554  0  1.029114  0
H  H4  1  0.18164899  0.13587594  0.73249977  1  0  0.077688  0  0.9521  0  0  0.083199  0  1.02275  0  0  0.086525  0  1.019959  0  0  0.105363  0.080666  0  1.025087  0
H  H5  1  0.81834915  0.86411987  0.26749884  1  0  0.077679  0  0.952158  0  0  0.083225  0  1.022764  0  0  0.08655  0  1.019974  0  0  0.105374  0.080692  0  1.025102  0
H  H6  1  0.76495663  0.40644461  0.54830620  1  0  0.074354  0  0.948414  0  0  0.081125  0  1.016652  0  0  0.08405  0  1.014676  0  0  0.102142  0.077481  0  1.021013  0
H  H7  1  0.23506038  0.59355886  0.45169670  1  0  0.074315  0  0.948252  0  0  0.081085  0  1.016508  0  0  0.084012  0  1.01453  0  0  0.102112  0.07744  0  1.02087  0
H  H8  1  0.00907546  0.62819705  0.67867662  1  0  0.109463  0  0.993277  0  0  0.114627  0  1.064237  0  0  0.118295  0  1.062844  0  0  0.090153  0.1106  0  1.067368  0
H  H9  1  0.99093938  0.37180204  0.32132277  1  0  0.109466  0  0.993218  0  0  0.114614  0  1.064215  0  0  0.118274  0  1.062831  0  0  0.090115  0.110601  0  1.067301  0
H  H10  1  0.68188225  0.99570884  0.82173731  1  0  0.10499  0  0.979142  0  0  0.111333  0  1.049365  0  0  0.114621  0  1.0479  0  0  0.091255  0.108941  0  1.050256  0
H  H11  1  0.31812398  0.00428807  0.17826087  1  0  0.104936  0  0.97918  0  0  0.111264  0  1.049429  0  0  0.114556  0  1.047959  0  0  0.091245  0.108874  0  1.050318  0
H  H12  1  0.12672693  0.77636905  0.04598652  1  0  0.120877  0  0.952962  0  0  0.130495  0  1.013769  0  0  0.133333  0  1.012509  0  0  0.108733  0.128472  0  1.014626  0
H  H13  1  0.87326639  0.22363223  0.95401238  1  0  0.120869  0  0.952883  0  0  0.13052  0  1.013672  0  0  0.133353  0  1.012419  0  0  0.108736  0.128489  0  1.014539  0
C  C14  1  0.29455126  0.36388823  0.80128949  1  0  -0.10657  0  3.68444  0  0  -0.127855  0  3.927402  0  0  -0.132389  0  3.948013  0  0  -0.07011  -0.124684  0  3.913246  0
C  C15  1  0.70545408  0.63611196  0.19870969  1  0  -0.106557  0  3.68451  0  0  -0.127845  0  3.927471  0  0  -0.132373  0  3.948074  0  0  -0.070077  -0.124674  0  3.913319  0
C  C16  1  0.15061299  0.24716611  0.72422856  1  0  0.117055  0  3.666733  0  0  0.091158  0  3.915011  0  0  0.096193  0  3.931862  0  0  0.03996  0.087697  0  3.90457  0
C  C17  1  0.84940131  0.75283189  0.27577227  1  0  0.116952  0  3.666824  0  0  0.091045  0  3.915116  0  0  0.096078  0  3.931978  0  0  0.039872  0.087585  0  3.904675  0
C  C18  1  0.91917628  0.39865307  0.62098670  1  0  0.114504  0  3.68491  0  0  0.088595  0  3.93374  0  0  0.093434  0  3.951086  0  0  0.036668  0.084905  0  3.923763  0
C  C19  1  0.08083910  0.60134713  0.37901049  1  0  0.114579  0  3.684683  0  0  0.088697  0  3.933519  0  0  0.093535  0  3.950875  0  0  0.036742  0.085005  0  3.923544  0
C  C20  1  0.05459915  0.52140499  0.69394854  1  0  -0.117471  0  3.713056  0  0  -0.142989  0  3.965335  0  0  -0.146993  0  3.985271  0  0  -0.081724  -0.139688  0  3.952401  0
C  C21  1  0.94542628  0.47859521  0.30604742  1  0  -0.117512  0  3.712998  0  0  -0.143018  0  3.965259  0  0  -0.147018  0  3.985192  0  0  -0.081687  -0.139713  0  3.952333  0
C  C22  1  0.24712724  0.50431223  0.78620441  1  0  -0.012324  0  3.744542  0  0  0.00071  0  3.983381  0  0  -0.001172  0  4.001627  0  0  0.000333  0.002014  0  3.969999  0
C  C23  1  0.75287396  0.49568467  0.21379593  1  0  -0.012363  0  3.744547  0  0  0.000685  0  3.983366  0  0  -0.001199  0  4.001609  0  0  0.000278  0.001988  0  3.96999  0
C  C24  1  0.40713292  0.62893289  0.86854696  1  0  0.597724  0  3.75718  0  0  0.549117  0  4.0526  0  0  0.583352  0  4.039347  0  0  0.245027  0.525924  0  4.06105  0
C  C25  1  0.59285986  0.37106729  0.13145415  1  0  0.597711  0  3.757441  0  0  0.549107  0  4.052833  0  0  0.583339  0  4.03958  0  0  0.24497  0.525914  0  4.061288  0
C  C26  1  0.60252443  0.99990602  0.89979121  1  0  -0.145055  0  3.74249  0  0  -0.163354  0  3.99126  0  0  -0.167389  0  4.011816  0  0  -0.096597  -0.160818  0  3.977525  0
C  C27  1  0.39747446  0.00009636  0.10020718  1  0  -0.144937  0  3.742534  0  0  -0.163172  0  3.991327  0  0  -0.167209  0  4.011879  0  0  -0.096557  -0.160639  0  3.977594  0
C  C28  1  0.39991300  0.87582207  0.92862044  1  0  0.267732  0  3.762901  0  0  0.255705  0  4.028553  0  0  0.26465  0  4.044643  0  0  0.076299  0.249588  0  4.017923  0
C  C29  1  0.60006186  0.12418250  0.07137738  1  0  0.267819  0  3.762663  0  0  0.255605  0  4.028593  0  0  0.264549  0  4.044687  0  0  0.076261  0.24949  0  4.017957  0
C  C30  1  0.29500745  0.87390091  0.02767989  1  0  -0.147917  0  3.745371  0  0  -0.170466  0  3.997982  0  0  -0.174176  0  4.018966  0  0  -0.092636  -0.167944  0  3.98402  0
C  C31  1  0.70497691  0.12610257  0.97231968  1  0  -0.147855  0  3.745066  0  0  -0.170378  0  3.997742  0  0  -0.174089  0  4.018731  0  0  -0.092614  -0.167849  0  3.983784  0
I  I32  1  0.70504738  0.85373842  0.60641071  1  0  -0.321218  0  1.775113  0  0  -0.272678  0  2.234254  0  0  -0.288688  0  2.191596  0  0  -0.157839  -0.260157  0  2.266316  0
I  I33  1  0.29492279  0.14626176  0.39359124  1  0  -0.321159  0  1.775315  0  0  -0.272619  0  2.234499  0  0  -0.288609  0  2.191835  0  0  -0.157812  -0.260107  0  2.266557  0
N  N34  1  0.96540247  0.26323605  0.63490019  1  0  -0.253001  0  3.367485  0  0  -0.181036  0  3.647482  0  0  -0.192471  0  3.658056  0  0  -0.357306  -0.173931  0  3.641118  0
N  N35  1  0.03460395  0.73676633  0.36510306  1  0  -0.252878  0  3.367399  0  0  -0.180982  0  3.647491  0  0  -0.192435  0  3.6581  0  0  -0.357294  -0.173875  0  3.64113  0
O  O36  1  0.28713756  0.75229063  0.85255397  1  0  -0.330471  0  2.322782  0  0  -0.263691  0  2.553859  0  0  -0.284541  0  2.552976  0  0  -0.141239  -0.249654  0  2.554299  0
O  O37  1  0.71285915  0.24770736  0.14744863  1  0  -0.330514  0  2.322635  0  0  -0.263664  0  2.553744  0  0  -0.28451  0  2.552864  0  0  -0.1412  -0.249626  0  2.554176  0
O  O38  1  0.62130521  0.62184211  0.94049347  1  0  -0.488116  0  1.979686  0  0  -0.452156  0  2.200339  0  0  -0.470118  0  2.192906  0  0  -0.254916  -0.4398  0  2.204826  0
O  O39  1  0.37870391  0.37816574  0.05951646  1  0  -0.488075  0  1.980016  0  0  -0.452147  0  2.200693  0  0  -0.470103  0  2.19325  0  0  -0.254874  -0.439794  0  2.205184  0
