# generated using pymatgen
data_AlH3C6SNO5F
_symmetry_space_group_name_H-M   'P 1'
_cell_length_a   6.75473547
_cell_length_b   8.81295754
_cell_length_c   12.85107909
_cell_angle_alpha   74.18536995
_cell_angle_beta   73.91979342
_cell_angle_gamma   75.23479059
_symmetry_Int_Tables_number   1
_chemical_formula_structural   AlH3C6SNO5F
_chemical_formula_sum   'Al2 H6 C12 S2 N2 O10 F2'
_cell_volume   693.81926101
_cell_formula_units_Z   2
loop_
 _symmetry_equiv_pos_site_id
 _symmetry_equiv_pos_as_xyz
  1  'x, y, z'
loop_
 _atom_site_type_symbol
 _atom_site_label
 _atom_site_symmetry_multiplicity
 _atom_site_fract_x
 _atom_site_fract_y
 _atom_site_fract_z
 _atom_site_occupancy
 _atom_site_pbe_bader_charge
 _atom_site_pbe_bader_spin_density
 _atom_site_pbe_cm5_charge
 _atom_site_pbe_ddec_charge
 _atom_site_pbe_ddec_spin_density
 _atom_site_pbe_ddec_sum_bond_order
 _atom_site_pbe_magmom
Al  Al0  1  0.49999843  0.49996465  0.50000158  1  2.508313  0  0.399221  1.63927  0  2.575294  0
Al  Al1  1  0.99998277  0.49996068  0.50003493  1  2.506515  0  0.397585  1.640516  0  2.585284  0
H  H2  1  0.78076176  0.61717610  0.36529018  1  0.603917  0  0.351411  0.430443  0  0.853605  0
H  H3  1  0.21924421  0.38283294  0.63470902  1  0.603958  0  0.351406  0.430348  0  0.853893  0
H  H4  1  0.75407314  0.85585559  0.52003854  1  0.504331  0  0.302747  0.3072  0  0.986645  0
H  H5  1  0.58532053  0.03389789  0.54781363  1  0.46429  0  0.298353  0.292295  0  0.984305  0
H  H6  1  0.24591562  0.14410440  0.47999644  1  0.504326  0  0.302941  0.307266  0  0.986537  0
H  H7  1  0.41470777  0.96605790  0.45222564  1  0.46393  0  0.298508  0.292492  0  0.984324  0
C  C8  1  0.35591903  0.49881553  0.30466675  1  1.598278  0  0.262042  0.674205  0  4.133027  0
C  C9  1  0.16114120  0.78769632  0.48650770  1  1.518641  0  0.254431  0.601572  0  4.089799  0
C  C10  1  0.64412770  0.50113807  0.69533187  1  1.599036  0  0.261851  0.673416  0  4.134077  0
C  C11  1  0.83885586  0.21227345  0.51350927  1  1.518663  0  0.254628  0.602079  0  4.088931  0
C  C12  1  0.89577706  0.04153058  0.50680994  1  0.433498  0  0.076978  0.047396  0  4.021413  0
C  C13  1  0.10427268  0.95841990  0.49316205  1  0.4939  0  0.077023  0.047432  0  4.022286  0
C  C14  1  0.40025264  0.47938453  0.89051242  1  0.614059  0  0.101958  0.259975  0  4.066116  0
C  C15  1  0.59968565  0.52071098  0.10946159  1  0.613172  0  0.101991  0.260346  0  4.065742  0
C  C16  1  0.58564312  0.50245106  0.81382199  1  -0.12767  0  -0.031335  -0.254072  0  3.972434  0
C  C17  1  0.41433737  0.49759893  0.18616410  1  -0.126552  0  -0.031385  -0.254789  0  3.972894  0
C  C18  1  0.59678670  0.51446913  0.00136121  1  -0.10063  0  -0.03026  -0.122481  0  4.119127  0
C  C19  1  0.40311026  0.48562997  0.99862838  1  -0.165067  0  -0.030295  -0.122589  0  4.120397  0
S  S20  1  0.76973152  0.53244309  0.87398271  1  0.328643  0  0.107146  0.190445  0  2.839575  0
S  S21  1  0.23024006  0.46768152  0.12597836  1  0.328891  0  0.107255  0.190922  0  2.841117  0
N  N22  1  0.72736337  0.97704652  0.51082953  1  -1.261158  0  -0.600792  -0.591688  0  3.405554  0
N  N23  1  0.27262858  0.02293364  0.48914155  1  -1.260202  0  -0.601026  -0.591722  0  3.406058  0
O  O24  1  0.49981203  0.49930135  0.35069260  1  -1.246627  0  -0.232657  -0.582192  0  2.327042  0
O  O25  1  0.01665454  0.71767748  0.48546922  1  -1.267931  0  -0.240804  -0.60175  0  2.406793  0
O  O26  1  0.83782605  0.50088770  0.64884410  1  -1.263236  0  -0.238078  -0.593149  0  2.333831  0
O  O27  1  0.64520677  0.27984848  0.51955142  1  -1.264328  0  -0.245359  -0.595966  0  2.350635  0
O  O28  1  0.50025483  0.50057218  0.64931213  1  -1.246843  0  -0.232581  -0.582046  0  2.327445  0
O  O29  1  0.98334765  0.28227706  0.51458641  1  -1.267855  0  -0.240971  -0.602083  0  2.40651  0
O  O30  1  0.16222679  0.49907426  0.35118548  1  -1.263088  0  -0.238261  -0.593559  0  2.332777  0
O  O31  1  0.35479944  0.72012171  0.48046264  1  -1.264849  0  -0.245304  -0.595674  0  2.350291  0
O  O32  1  0.75481799  0.57385052  0.44474040  1  -1.409339  0  -0.448634  -0.985647  0  2.164875  0
O  O33  1  0.24514705  0.42615585  0.55526883  1  -1.409384  0  -0.448565  -0.985541  0  2.165464  0
F  F34  1  0.23352108  0.45010507  0.86674926  1  -0.630817  0  -0.085649  -0.116368  0  1.42427  0
F  F35  1  0.76648124  0.54997536  0.13316748  1  -0.630782  0  -0.085517  -0.116302  0  1.423901  0
