# generated using pymatgen
data_CuH8C12(NO2)2
_symmetry_space_group_name_H-M   'P 1'
_cell_length_a   5.20097417
_cell_length_b   7.74509719
_cell_length_c   8.81421813
_cell_angle_alpha   74.42040083
_cell_angle_beta   83.92201867
_cell_angle_gamma   70.03572624
_symmetry_Int_Tables_number   1
_chemical_formula_structural   CuH8C12(NO2)2
_chemical_formula_sum   'Cu1 H8 C12 N2 O4'
_cell_volume   321.41719775
_cell_formula_units_Z   1
loop_
 _symmetry_equiv_pos_site_id
 _symmetry_equiv_pos_as_xyz
  1  'x, y, z'
loop_
 _atom_site_type_symbol
 _atom_site_label
 _atom_site_symmetry_multiplicity
 _atom_site_fract_x
 _atom_site_fract_y
 _atom_site_fract_z
 _atom_site_occupancy
 _atom_site_hle17_ddec_charge
 _atom_site_hle17_ddec_spin_density
 _atom_site_hle17_ddec_sum_bond_order
 _atom_site_hle17_magmom
 _atom_site_hse06_10hf_ddec_charge
 _atom_site_hse06_10hf_ddec_spin_density
 _atom_site_hse06_10hf_ddec_sum_bond_order
 _atom_site_hse06_10hf_magmom
 _atom_site_hse06_ddec_charge
 _atom_site_hse06_ddec_spin_density
 _atom_site_hse06_ddec_sum_bond_order
 _atom_site_hse06_magmom
 _atom_site_pbe_cm5_charge
 _atom_site_pbe_ddec_charge
 _atom_site_pbe_ddec_spin_density
 _atom_site_pbe_ddec_sum_bond_order
 _atom_site_pbe_magmom
Cu  Cu0  1  0.99999946  0.00000257  0.99999678  1  0.830269  0.687064  1.854444  0.503  0.803652  0.768783  2.247999  0.612  0.889647  0.833203  2.182015  0.695  0.751099  0.750811  0.723309  2.294463  0.558
H  H1  1  0.13175928  0.52796951  0.89372597  1  0.128441  0.000855  0.971538  0.001  0.134615  0.000755  1.037593  0.001  0.138625  0.000504  1.035915  0.001  0.110982  0.131621  0.000996  1.038946  0.001
H  H2  1  0.86823474  0.47202802  0.10628010  1  0.128455  0.000852  0.971621  0.001  0.134581  0.000755  1.03772  0.001  0.138596  0.000504  1.036026  0.001  0.110976  0.131585  0.000996  1.039075  0.001
H  H3  1  0.28243356  0.71732078  0.64792220  1  0.110058  0.000118  0.909417  0.0  0.125349  -9.6e-05  0.956039  0.0  0.128291  -9.8e-05  0.95406  0.0  0.119285  0.123057  -8.8e-05  0.957748  0.0
H  H4  1  0.71755339  0.28267972  0.35207793  1  0.110052  0.00012  0.909535  0.0  0.125364  -9.7e-05  0.956119  0.0  0.128303  -9.8e-05  0.954147  0.0  0.119304  0.123074  -8.8e-05  0.957828  0.0
H  H5  1  0.75534378  0.58499563  0.53866748  1  0.098829  0.000395  0.954669  0.0  0.111948  0.00045  1.010114  0.0  0.114241  0.000338  1.010194  0.0  0.110439  0.110235  0.000538  1.010319  0.0
H  H6  1  0.24464443  0.41500622  0.46133568  1  0.09888  0.000395  0.954465  0.0  0.112033  0.00045  1.00988  0.0  0.114325  0.000338  1.009963  0.0  0.110468  0.11032  0.000538  1.010083  0.0
H  H7  1  0.06336323  0.26417762  0.68770113  1  0.09151  0.000776  0.939192  0.002  0.099826  0.000711  1.001202  0.001  0.102925  0.000532  0.998032  0.001  0.121821  0.097374  0.000842  1.003687  0.002
H  H8  1  0.93663085  0.73582851  0.31229506  1  0.091499  0.000774  0.939192  0.002  0.099838  0.000709  1.001175  0.001  0.102938  0.00053  0.998004  0.001  0.121822  0.097382  0.00084  1.003659  0.002
C  C9  1  0.45750389  0.17530911  0.07385983  1  0.591801  -0.00788  3.959163  -0.007  0.547043  -0.001594  4.269361  -0.002  0.582375  -0.001586  4.264114  -0.001  0.194598  0.522954  -0.001642  4.271905  -0.002
C  C10  1  0.54250566  0.82468832  0.92614423  1  0.591902  -0.007875  3.958953  -0.007  0.547136  -0.001593  4.269163  -0.002  0.582464  -0.001588  4.26392  -0.001  0.194685  0.523034  -0.001643  4.271721  -0.002
C  C11  1  0.51941795  0.29996292  0.92014757  1  0.09905  -0.009973  3.726608  -0.007  0.106043  -0.00287  3.962707  -0.002  0.109381  -0.004115  3.983638  -0.003  0.111998  0.103574  -0.001933  3.949291  -0.001
C  C12  1  0.48058580  0.70003033  0.07985663  1  0.099096  -0.009968  3.727041  -0.007  0.106046  -0.00287  3.963164  -0.002  0.109385  -0.004108  3.984102  -0.002  0.111955  0.103579  -0.001932  3.949745  -0.001
C  C13  1  0.33539358  0.47299521  0.84426494  1  -0.108891  0.006379  3.676731  0.006  -0.130566  0.002291  3.922346  0.002  -0.136989  0.002249  3.942891  0.002  -0.072576  -0.126414  0.002315  3.908957  0.002
C  C14  1  0.66461026  0.52701522  0.15572065  1  -0.10888  0.006392  3.676405  0.006  -0.130489  0.002293  3.92199  0.002  -0.136912  0.002248  3.942535  0.002  -0.072535  -0.126333  0.002316  3.908608  0.002
C  C15  1  0.42041365  0.57853120  0.70614016  1  0.009622  -0.01243  3.680766  -0.008  -0.008694  -0.004343  3.929774  -0.002  -0.003781  -0.004918  3.945323  -0.003  -0.056824  -0.012012  -0.003808  3.919555  -0.002
C  C16  1  0.57957838  0.42145775  0.29387589  1  0.009728  -0.012455  3.68025  -0.008  -0.008597  -0.004347  3.929227  -0.002  -0.00368  -0.00492  3.944771  -0.003  -0.056754  -0.011921  -0.003812  3.919012  -0.002
C  C17  1  0.68336798  0.50592038  0.64613541  1  -0.105172  0.009171  3.728932  0.01  -0.119671  0.0036  3.980066  0.004  -0.125956  0.003354  4.000806  0.004  -0.074897  -0.115626  0.003665  3.966163  0.004
C  C18  1  0.31662419  0.49409433  0.35385329  1  -0.105418  0.009162  3.729362  0.01  -0.119955  0.003598  3.980551  0.004  -0.126245  0.00335  4.001293  0.004  -0.075008  -0.115903  0.003661  3.966642  0.004
C  C19  1  0.85545813  0.33061197  0.72674659  1  0.129829  -0.010484  3.680374  -0.007  0.101232  -0.002323  3.935179  -0.001  0.109559  -0.003872  3.953039  -0.003  0.054074  0.096021  -0.001073  3.923482  0.0
C  C20  1  0.14454299  0.66937841  0.27326294  1  0.129934  -0.010474  3.680098  -0.007  0.101318  -0.002324  3.93491  -0.001  0.109655  -0.003869  3.952751  -0.003  0.05403  0.096117  -0.001072  3.923206  0.0
N  N21  1  0.77402841  0.23278362  0.86177281  1  -0.29517  0.06917  3.365379  0.088  -0.249534  0.048144  3.652103  0.065  -0.276642  0.040197  3.671156  0.058  -0.35147  -0.233731  0.052135  3.641543  0.067
N  N22  1  0.22598061  0.76721971  0.13821408  1  -0.295278  0.069167  3.365048  0.088  -0.24964  0.048148  3.651806  0.065  -0.276753  0.040198  3.670856  0.058  -0.351414  -0.233841  0.052134  3.641256  0.067
O  O23  1  0.22136774  0.21265650  0.13094860  1  -0.5746  0.018018  1.932004  0.025  -0.553476  0.008607  2.171782  0.014  -0.579361  0.003299  2.162433  0.007  -0.311012  -0.533981  0.014822  2.176895  0.021
O  O24  1  0.77864045  0.78734365  0.86906288  1  -0.574612  0.018023  1.93209  0.025  -0.553484  0.008609  2.171882  0.014  -0.57937  0.003301  2.162536  0.007  -0.31101  -0.533975  0.014828  2.176988  0.021
O  O25  1  0.66633024  0.03191218  0.13584562  1  -0.590401  0.092347  2.023169  0.127  -0.565891  0.062275  2.300456  0.094  -0.607442  0.047514  2.291627  0.077  -0.331968  -0.538434  0.071574  2.30665  0.102
O  O26  1  0.33368843  0.96808245  0.86415174  1  -0.590534  0.092359  2.023035  0.127  -0.566027  0.062279  2.300333  0.094  -0.607577  0.047515  2.2915  0.077  -0.332071  -0.53857  0.07158  2.306535  0.102
