# generated using pymatgen
data_Ag2PH2CO3
_symmetry_space_group_name_H-M   'P 1'
_cell_length_a   5.71631704
_cell_length_b   8.53294472
_cell_length_c   9.02358678
_cell_angle_alpha   90.00115239
_cell_angle_beta   90.00162071
_cell_angle_gamma   100.37185728
_symmetry_Int_Tables_number   1
_chemical_formula_structural   Ag2PH2CO3
_chemical_formula_sum   'Ag8 P4 H8 C4 O12'
_cell_volume   432.95170959
_cell_formula_units_Z   4
loop_
 _symmetry_equiv_pos_site_id
 _symmetry_equiv_pos_as_xyz
  1  'x, y, z'
loop_
 _atom_site_type_symbol
 _atom_site_label
 _atom_site_symmetry_multiplicity
 _atom_site_fract_x
 _atom_site_fract_y
 _atom_site_fract_z
 _atom_site_occupancy
 _atom_site_hle17_bader_spin_density
 _atom_site_hle17_ddec_charge
 _atom_site_hle17_ddec_spin_density
 _atom_site_hle17_ddec_sum_bond_order
 _atom_site_hle17_magmom
 _atom_site_hse06_10hf_bader_spin_density
 _atom_site_hse06_10hf_ddec_charge
 _atom_site_hse06_10hf_ddec_spin_density
 _atom_site_hse06_10hf_ddec_sum_bond_order
 _atom_site_hse06_10hf_magmom
 _atom_site_hse06_bader_spin_density
 _atom_site_hse06_ddec_charge
 _atom_site_hse06_ddec_spin_density
 _atom_site_hse06_ddec_sum_bond_order
 _atom_site_hse06_magmom
 _atom_site_pbe_bader_spin_density
 _atom_site_pbe_cm5_charge
 _atom_site_pbe_ddec_charge
 _atom_site_pbe_ddec_spin_density
 _atom_site_pbe_ddec_sum_bond_order
 _atom_site_pbe_magmom
Ag  Ag0  1  0.96626529  0.56306885  0.35709398  1  0  0.640481  0  1.461426  0  0  0.540228  0  1.895909  0  0  0.57367  0  1.83238  0  0  0.427348  0.516202  0  1.940357  0
Ag  Ag1  1  0.46624037  0.06305891  0.14292144  1  0  0.640499  0  1.461582  0  0  0.540179  0  1.896205  0  0  0.573613  0  1.832679  0  0  0.427331  0.516156  0  1.940648  0
Ag  Ag2  1  0.03374148  0.43693643  0.64292842  1  0  0.64052  0  1.461312  0  0  0.540228  0  1.895835  0  0  0.573668  0  1.832311  0  0  0.42738  0.516202  0  1.940281  0
Ag  Ag3  1  0.53372692  0.93694208  0.85708765  1  0  0.64047  0  1.461589  0  0  0.540182  0  1.896149  0  0  0.573622  0  1.83262  0  0  0.42734  0.51616  0  1.940592  0
Ag  Ag4  1  0.54752094  0.33314784  0.46881402  1  0  0.660887  0  1.46843  0  0  0.560078  0  1.906476  0  0  0.590539  0  1.846652  0  0  0.449029  0.538478  0  1.948163  0
Ag  Ag5  1  0.04749836  0.83313172  0.03118777  1  0  0.660876  0  1.468367  0  0  0.560076  0  1.906409  0  0  0.590539  0  1.846582  0  0  0.448983  0.538476  0  1.948094  0
Ag  Ag6  1  0.45247177  0.66685718  0.53117845  1  0  0.660831  0  1.468625  0  0  0.560036  0  1.906682  0  0  0.590494  0  1.846857  0  0  0.44901  0.538447  0  1.948366  0
Ag  Ag7  1  0.95247878  0.16685878  0.96881357  1  0  0.660834  0  1.468433  0  0  0.560017  0  1.906485  0  0  0.590481  0  1.846659  0  0  0.448991  0.538414  0  1.948167  0
P  P8  1  0.96550447  0.18421995  0.32905384  1  0  1.433322  0  4.88304  0  0  1.284901  0  5.348442  0  0  1.333149  0  5.323939  0  0  0.281208  1.251407  0  5.363958  0
P  P9  1  0.46550199  0.68421857  0.17095834  1  0  1.434024  0  4.883724  0  0  1.285511  0  5.349136  0  0  1.333792  0  5.32461  0  0  0.281341  1.25202  0  5.364661  0
P  P10  1  0.03449379  0.81578636  0.67094307  1  0  1.433024  0  4.882632  0  0  1.284599  0  5.348066  0  0  1.33285  0  5.323581  0  0  0.281142  1.251105  0  5.363591  0
P  P11  1  0.53449582  0.31576283  0.82902305  1  0  1.433953  0  4.884144  0  0  1.285422  0  5.349505  0  0  1.333689  0  5.324975  0  0  0.281205  1.251924  0  5.365055  0
H  H12  1  0.77358649  0.06243740  0.54598128  1  0  0.114034  0  0.955759  0  0  0.124476  0  1.030139  0  0  0.127131  0  1.027601  0  0  0.094947  0.122497  0  1.032148  0
H  H13  1  0.27360884  0.56245107  0.95398108  1  0  0.113997  0  0.955483  0  0  0.12442  0  1.0299  0  0  0.127099  0  1.027353  0  0  0.094897  0.12245  0  1.03188  0
H  H14  1  0.22641432  0.93755711  0.45400676  1  0  0.113994  0  0.955739  0  0  0.124395  0  1.030147  0  0  0.127057  0  1.027608  0  0  0.094898  0.122413  0  1.032158  0
H  H15  1  0.72641508  0.43754505  0.04600475  1  0  0.113902  0  0.955612  0  0  0.124317  0  1.030052  0  0  0.126983  0  1.027505  0  0  0.094843  0.12236  0  1.032011  0
H  H16  1  0.78938730  0.92162468  0.40171550  1  0  0.127988  0  0.945716  0  0  0.140502  0  1.01071  0  0  0.143453  0  1.008758  0  0  0.099819  0.138255  0  1.012425  0
H  H17  1  0.28941243  0.42162042  0.09826361  1  0  0.127799  0  0.945275  0  0  0.140367  0  1.010237  0  0  0.143328  0  1.008297  0  0  0.099733  0.138117  0  1.011953  0
H  H18  1  0.21056823  0.07837847  0.59828916  1  0  0.127992  0  0.94577  0  0  0.140476  0  1.010759  0  0  0.143431  0  1.008813  0  0  0.099774  0.138229  0  1.01247  0
H  H19  1  0.71063758  0.57837500  0.90174327  1  0  0.127735  0  0.945419  0  0  0.14031  0  1.010407  0  0  0.143264  0  1.008455  0  0  0.099727  0.138064  0  1.012127  0
C  C20  1  0.89150959  0.02330387  0.46258722  1  0  -0.373484  0  3.680795  0  0  -0.388082  0  3.915895  0  0  -0.397261  0  3.928116  0  0  -0.171204  -0.38168  0  3.907672  0
C  C21  1  0.39153175  0.52334448  0.03741943  1  0  -0.373456  0  3.680279  0  0  -0.388028  0  3.915413  0  0  -0.397301  0  3.927774  0  0  -0.171196  -0.381615  0  3.907186  0
C  C22  1  0.10854072  0.97670816  0.53739307  1  0  -0.373173  0  3.680401  0  0  -0.387681  0  3.91545  0  0  -0.396896  0  3.927707  0  0  -0.171095  -0.381275  0  3.907213  0
C  C23  1  0.60848596  0.47665508  0.96257637  1  0  -0.373632  0  3.680432  0  0  -0.388259  0  3.915677  0  0  -0.397467  0  3.927983  0  0  -0.171313  -0.381865  0  3.907469  0
O  O24  1  0.13385370  0.32556809  0.40117408  1  0  -0.881991  0  2.176911  0  0  -0.772867  0  2.471823  0  0  -0.807904  0  2.449639  0  0  -0.390652  -0.748038  0  2.486221  0
O  O25  1  0.63383751  0.82557874  0.09885243  1  0  -0.882152  0  2.176723  0  0  -0.772979  0  2.471616  0  0  -0.808021  0  2.449425  0  0  -0.390742  -0.748153  0  2.486016  0
O  O26  1  0.86612129  0.67442831  0.59883613  1  0  -0.881891  0  2.17674  0  0  -0.772777  0  2.471668  0  0  -0.807814  0  2.449485  0  0  -0.390643  -0.747957  0  2.486066  0
O  O27  1  0.36616171  0.17443945  0.90116442  1  0  -0.882106  0  2.176893  0  0  -0.772919  0  2.471797  0  0  -0.807958  0  2.449603  0  0  -0.390688  -0.748093  0  2.486199  0
O  O28  1  0.72699324  0.23652760  0.28412766  1  0  -0.870272  0  2.197759  0  0  -0.754828  0  2.503075  0  0  -0.791885  0  2.482121  0  0  -0.39718  -0.728556  0  2.516544  0
O  O29  1  0.22701788  0.73649827  0.21586562  1  0  -0.870508  0  2.198122  0  0  -0.755083  0  2.503516  0  0  -0.792138  0  2.482546  0  0  -0.397254  -0.728812  0  2.516995  0
O  O30  1  0.27300811  0.76346928  0.71586592  1  0  -0.870285  0  2.197741  0  0  -0.754839  0  2.503047  0  0  -0.791894  0  2.482095  0  0  -0.397205  -0.728565  0  2.516514  0
O  O31  1  0.77297372  0.26348658  0.78413239  1  0  -0.870385  0  2.198274  0  0  -0.754964  0  2.503697  0  0  -0.792022  0  2.482742  0  0  -0.397187  -0.72869  0  2.517163  0
O  O32  1  0.08149937  0.11967410  0.19249186  1  0  -0.850912  0  2.163799  0  0  -0.734316  0  2.459887  0  0  -0.770789  0  2.439514  0  0  -0.39319  -0.708478  0  2.47311  0
O  O33  1  0.58146487  0.61968637  0.30748986  1  0  -0.851038  0  2.164226  0  0  -0.734446  0  2.46029  0  0  -0.770916  0  2.439909  0  0  -0.393154  -0.708613  0  2.473519  0
O  O34  1  0.91849509  0.88033096  0.80750504  1  0  -0.850888  0  2.163738  0  0  -0.7343  0  2.459818  0  0  -0.770772  0  2.439448  0  0  -0.393167  -0.708465  0  2.473041  0
O  O35  1  0.41854030  0.38032719  0.69251702  1  0  -0.850987  0  2.164296  0  0  -0.734353  0  2.460328  0  0  -0.770818  0  2.439948  0  0  -0.393076  -0.708522  0  2.473557  0
