# generated using pymatgen
data_Li2H3C8NO4
_symmetry_space_group_name_H-M   'P 1'
_cell_length_a   5.19923481
_cell_length_b   9.41313247
_cell_length_c   9.25481148
_cell_angle_alpha   104.87063857
_cell_angle_beta   96.07043766
_cell_angle_gamma   106.09014175
_symmetry_Int_Tables_number   1
_chemical_formula_structural   Li2H3C8NO4
_chemical_formula_sum   'Li4 H6 C16 N2 O8'
_cell_volume   412.92147268
_cell_formula_units_Z   2
loop_
 _symmetry_equiv_pos_site_id
 _symmetry_equiv_pos_as_xyz
  1  'x, y, z'
loop_
 _atom_site_type_symbol
 _atom_site_label
 _atom_site_symmetry_multiplicity
 _atom_site_fract_x
 _atom_site_fract_y
 _atom_site_fract_z
 _atom_site_occupancy
 _atom_site_hle17_bader_spin_density
 _atom_site_hle17_ddec_charge
 _atom_site_hle17_ddec_spin_density
 _atom_site_hle17_ddec_sum_bond_order
 _atom_site_hle17_magmom
 _atom_site_hse06_10hf_bader_spin_density
 _atom_site_hse06_10hf_ddec_charge
 _atom_site_hse06_10hf_ddec_spin_density
 _atom_site_hse06_10hf_ddec_sum_bond_order
 _atom_site_hse06_10hf_magmom
 _atom_site_hse06_bader_spin_density
 _atom_site_hse06_ddec_charge
 _atom_site_hse06_ddec_spin_density
 _atom_site_hse06_ddec_sum_bond_order
 _atom_site_hse06_magmom
 _atom_site_pbe_bader_spin_density
 _atom_site_pbe_cm5_charge
 _atom_site_pbe_ddec_charge
 _atom_site_pbe_ddec_spin_density
 _atom_site_pbe_ddec_sum_bond_order
 _atom_site_pbe_magmom
Li  Li0  1  0.29116469  0.86346176  0.11210149  1  0  0.862366  0  0.393954  0  0  0.826387  0  0.49254  0  0  0.835464  0  0.476379  0  0  0.530084  0.819664  0  0.504427  0
Li  Li1  1  0.70883635  0.13653822  0.88789850  1  0  0.86236  0  0.393955  0  0  0.826395  0  0.492514  0  0  0.835471  0  0.476355  0  0  0.53008  0.819672  0  0.504402  0
Li  Li2  1  0.86009392  0.03430785  0.12346308  1  0  0.861643  0  0.390562  0  0  0.825076  0  0.488233  0  0  0.834427  0  0.471731  0  0  0.528636  0.818128  0  0.500542  0
Li  Li3  1  0.13990712  0.96569213  0.87653692  1  0  0.861664  0  0.390541  0  0  0.825104  0  0.488198  0  0  0.834454  0  0.471698  0  0  0.528644  0.818157  0  0.500505  0
H  H4  1  0.62435648  0.23916193  0.61711724  1  0  0.115422  0  0.92695  0  0  0.122925  0  0.989957  0  0  0.127541  0  0.985584  0  0  0.124222  0.11967  0  0.992944  0
H  H5  1  0.37564003  0.76083687  0.38288112  1  0  0.115379  0  0.926999  0  0  0.122912  0  0.989967  0  0  0.127527  0  0.985595  0  0  0.124196  0.119657  0  0.992955  0
H  H6  1  0.24947643  0.53874099  0.89028631  1  0  0.113564  0  0.931087  0  0  0.12304  0  0.993129  0  0  0.126921  0  0.990806  0  0  0.121463  0.119975  0  0.995989  0
H  H7  1  0.75052266  0.46125897  0.10971250  1  0  0.113579  0  0.931072  0  0  0.123055  0  0.993111  0  0  0.126938  0  0.990786  0  0  0.121452  0.119991  0  0.995972  0
H  H8  1  0.87132804  0.72263308  0.65184684  1  0  0.103042  0  0.956075  0  0  0.10592  0  1.029497  0  0  0.110727  0  1.024603  0  0  0.12224  0.102688  0  1.032467  0
H  H9  1  0.12867298  0.27736689  0.34815207  1  0  0.103027  0  0.956146  0  0  0.105904  0  1.029558  0  0  0.110711  0  1.024664  0  0  0.122229  0.102671  0  1.03253  0
C  C10  1  0.76155735  0.47827904  0.62260836  1  0  0.148135  0  3.804725  0  0  0.158035  0  4.059222  0  0  0.154987  0  4.084616  0  0  0.092723  0.159896  0  4.042186  0
C  C11  1  0.23844115  0.52171979  0.37739336  1  0  0.148221  0  3.80468  0  0  0.158111  0  4.059187  0  0  0.155069  0  4.084579  0  0  0.092755  0.159973  0  4.042152  0
C  C12  1  0.60446438  0.35338827  0.66391943  1  0  -0.081564  0  3.644733  0  0  -0.119783  0  3.89621  0  0  -0.11744  0  3.913219  0  0  -0.049006  -0.12119  0  3.884565  0
C  C13  1  0.39553409  0.64661054  0.33608013  1  0  -0.081542  0  3.644762  0  0  -0.119791  0  3.896237  0  0  -0.117449  0  3.913248  0  0  -0.048977  -0.121198  0  3.884593  0
C  C14  1  0.42236936  0.37530557  0.76205916  1  0  -0.078441  0  3.742869  0  0  -0.052095  0  3.979183  0  0  -0.062021  0  4.003519  0  0  -0.007222  -0.045994  0  3.964697  0
C  C15  1  0.57763427  0.62469558  0.23794236  1  0  -0.078424  0  3.742807  0  0  -0.052059  0  3.979104  0  0  -0.061983  0  4.003438  0  0  -0.007206  -0.045958  0  3.964618  0
C  C16  1  0.39818214  0.52274947  0.81829320  1  0  -0.030645  0  3.644166  0  0  -0.071815  0  3.894554  0  0  -0.069601  0  3.915445  0  0  -0.054217  -0.074834  0  3.883957  0
C  C17  1  0.60181889  0.47725050  0.18170679  1  0  -0.030722  0  3.644106  0  0  -0.071897  0  3.894509  0  0  -0.069681  0  3.915396  0  0  -0.054229  -0.074916  0  3.883913  0
C  C18  1  0.56544116  0.64953970  0.78323403  1  0  -0.073579  0  3.744259  0  0  -0.047631  0  3.978112  0  0  -0.05847  0  4.003069  0  0  -0.00186  -0.040187  0  3.960336  0
C  C19  1  0.43455795  0.35046028  0.21676586  1  0  -0.073538  0  3.744276  0  0  -0.047626  0  3.978124  0  0  -0.058466  0  4.003081  0  0  -0.001872  -0.040183  0  3.960352  0
C  C20  1  0.74607368  0.62737817  0.68513979  1  0  -0.086428  0  3.658995  0  0  -0.124874  0  3.910165  0  0  -0.122251  0  3.928306  0  0  -0.052829  -0.125023  0  3.896146  0
C  C21  1  0.25392476  0.37262063  0.31485868  1  0  -0.086423  0  3.659066  0  0  -0.124858  0  3.910228  0  0  -0.122232  0  3.928362  0  0  -0.052807  -0.125009  0  3.896211  0
C  C22  1  0.25307612  0.24294876  0.80819318  1  0  0.713963  0  3.896039  0  0  0.669016  0  4.188118  0  0  0.701692  0  4.179237  0  0  0.235614  0.646991  0  4.193308  0
C  C23  1  0.74692428  0.75705354  0.19180846  1  0  0.713902  0  3.896132  0  0  0.668941  0  4.188222  0  0  0.701617  0  4.179339  0  0  0.235546  0.646916  0  4.19341  0
C  C24  1  0.54520418  0.80713294  0.85054860  1  0  0.736004  0  3.861971  0  0  0.691648  0  4.150008  0  0  0.725407  0  4.13845  0  0  0.257102  0.66884  0  4.156554  0
C  C25  1  0.45479686  0.19286703  0.14945139  1  0  0.735919  0  3.862114  0  0  0.691651  0  4.15002  0  0  0.725415  0  4.138454  0  0  0.257106  0.668844  0  4.156568  0
N  N26  1  0.92818269  0.44228316  0.51661792  1  0  -0.148733  0  3.004655  0  0  -0.127793  0  3.290392  0  0  -0.127463  0  3.300305  0  0  -0.141593  -0.128046  0  3.284064  0
N  N27  1  0.07181320  0.55771449  0.48338119  1  0  -0.148673  0  3.004652  0  0  -0.12773  0  3.290389  0  0  -0.127403  0  3.300303  0  0  -0.141531  -0.127982  0  3.284061  0
O  O28  1  0.03448803  0.25185929  0.85085771  1  0  -0.709456  0  1.926353  0  0  -0.668763  0  2.158032  0  0  -0.690169  0  2.146901  0  0  -0.386546  -0.653603  0  2.165174  0
O  O29  1  0.96551107  0.74814068  0.14914218  1  0  -0.70942  0  1.926315  0  0  -0.668722  0  2.158003  0  0  -0.69013  0  2.146873  0  0  -0.386528  -0.653561  0  2.165144  0
O  O30  1  0.34473834  0.12812648  0.80405905  1  0  -0.820561  0  1.918695  0  0  -0.771081  0  2.143312  0  0  -0.791934  0  2.128191  0  0  -0.462464  -0.756727  0  2.153724  0
O  O31  1  0.65525946  0.87187465  0.19594106  1  0  -0.820514  0  1.918803  0  0  -0.771027  0  2.143432  0  0  -0.79188  0  2.128313  0  0  -0.462413  -0.756672  0  2.153845  0
O  O32  1  0.75547653  0.92598593  0.86986762  1  0  -0.845483  0  1.988783  0  0  -0.80027  0  2.230422  0  0  -0.819089  0  2.211829  0  0  -0.439545  -0.786991  0  2.243179  0
O  O33  1  0.24452387  0.07401289  0.13013204  1  0  -0.845434  0  1.988803  0  0  -0.800257  0  2.230423  0  0  -0.819074  0  2.211824  0  0  -0.439541  -0.786978  0  2.24318  0
O  O34  1  0.32223109  0.81779058  0.88888571  1  0  -0.779315  0  1.992443  0  0  -0.738021  0  2.238089  0  0  -0.758808  0  2.223602  0  0  -0.416852  -0.723343  0  2.247814  0
O  O35  1  0.67777126  0.18220825  0.11111515  1  0  -0.779293  0  1.992504  0  0  -0.738029  0  2.238108  0  0  -0.758821  0  2.22362  0  0  -0.416858  -0.723337  0  2.247803  0
