# generated using pymatgen
data_H10PbC12(BrN2)2
_symmetry_space_group_name_H-M   'P 1'
_cell_length_a   4.20013764
_cell_length_b   9.20285978
_cell_length_c   10.75430042
_cell_angle_alpha   109.63511017
_cell_angle_beta   95.17467766
_cell_angle_gamma   91.30083364
_symmetry_Int_Tables_number   1
_chemical_formula_structural   H10PbC12(BrN2)2
_chemical_formula_sum   'H10 Pb1 C12 Br2 N4'
_cell_volume   389.29854662
_cell_formula_units_Z   1
loop_
 _symmetry_equiv_pos_site_id
 _symmetry_equiv_pos_as_xyz
  1  'x, y, z'
loop_
 _atom_site_type_symbol
 _atom_site_label
 _atom_site_symmetry_multiplicity
 _atom_site_fract_x
 _atom_site_fract_y
 _atom_site_fract_z
 _atom_site_occupancy
 _atom_site_pbe_bader_spin_density
 _atom_site_pbe_cm5_charge
 _atom_site_pbe_ddec_charge
 _atom_site_pbe_ddec_spin_density
 _atom_site_pbe_ddec_sum_bond_order
 _atom_site_pbe_magmom
H  H0  1  0.37052038  0.00028050  0.30800025  1  0  0.106112  0.078269  0  1.022757  0
H  H1  1  0.62906574  0.99980658  0.69201442  1  0  0.106417  0.078564  0  1.02315  0
H  H2  1  0.49327150  0.82881268  0.44465908  1  0  0.109256  0.117459  0  1.011471  0
H  H3  1  0.50647749  0.17129986  0.55539769  1  0  0.109329  0.117544  0  1.011432  0
H  H4  1  0.84321132  0.47882441  0.16116171  1  0  0.09299  0.110605  0  1.052313  0
H  H5  1  0.15701566  0.52112985  0.83884176  1  0  0.093176  0.110943  0  1.052099  0
H  H6  1  0.75032198  0.66317122  0.03571767  1  0  0.102501  0.07363  0  1.028443  0
H  H7  1  0.24946696  0.33678932  0.96435382  1  0  0.102541  0.073686  0  1.02801  0
H  H8  1  0.09236291  0.42456598  0.35512910  1  0  0.107809  0.086601  0  1.009711  0
H  H9  1  0.90771163  0.57549542  0.64494886  1  0  0.107853  0.086813  0  1.009387  0
Pb  Pb10  1  0.00018075  0.99998883  0.99988960  1  0  0.400239  0.746185  0  2.302871  0
C  C11  1  0.25805294  0.88387090  0.27989955  1  0  0.041987  0.084807  0  3.974893  0
C  C12  1  0.74159651  0.11617001  0.72012039  1  0  0.041699  0.084191  0  3.976743  0
C  C13  1  0.32610089  0.78943839  0.35495077  1  0  -0.075327  -0.15231  0  3.910733  0
C  C14  1  0.67366729  0.21059784  0.64508535  1  0  -0.075474  -0.152073  0  3.911398  0
C  C15  1  0.17893524  0.63964842  0.31255549  1  0  0.011522  0.112459  0  3.988667  0
C  C16  1  0.82111840  0.36031286  0.68742482  1  0  0.011873  0.112942  0  3.987636  0
C  C17  1  0.96539119  0.59339634  0.19645102  1  0  -0.080284  -0.158799  0  3.913613  0
C  C18  1  0.03473302  0.40657777  0.80355693  1  0  -0.080475  -0.159629  0  3.913166  0
C  C19  1  0.91310026  0.69526030  0.12709967  1  0  0.041791  0.089894  0  3.976618  0
C  C20  1  0.08676472  0.30470876  0.87292314  1  0  0.041871  0.090179  0  3.975847  0
C  C21  1  0.24560902  0.53115148  0.38286334  1  0  0.076105  0.062265  0  3.901552  0
C  C22  1  0.75456512  0.46885707  0.61714219  1  0  0.075693  0.061898  0  3.901392  0
Br  Br23  1  0.45388573  0.78510112  0.83519216  1  0  -0.216936  -0.457484  0  1.249814  0
Br  Br24  1  0.54677402  0.21480786  0.16475727  1  0  -0.217063  -0.457601  0  1.24929  0
N  N25  1  0.05647226  0.83772922  0.16729781  1  0  -0.304909  -0.249342  0  3.46217  0
N  N26  1  0.94320842  0.16227088  0.83268398  1  0  -0.304964  -0.249174  0  3.462866  0
N  N27  1  0.48629979  0.55881815  0.47320021  1  0  -0.212814  -0.171083  0  3.312308  0
N  N28  1  0.51411581  0.44111826  0.52668261  1  0  -0.212519  -0.171439  0  3.312528  0
