# generated using pymatgen
data_CuH5C2IN
_symmetry_space_group_name_H-M   'P 1'
_cell_length_a   6.88962058
_cell_length_b   8.82548295
_cell_length_c   8.82550346
_cell_angle_alpha   118.13117953
_cell_angle_beta   97.01470367
_cell_angle_gamma   97.01528912
_symmetry_Int_Tables_number   1
_chemical_formula_structural   CuH5C2IN
_chemical_formula_sum   'Cu4 H20 C8 I4 N4'
_cell_volume   459.68667958
_cell_formula_units_Z   4
loop_
 _symmetry_equiv_pos_site_id
 _symmetry_equiv_pos_as_xyz
  1  'x, y, z'
loop_
 _atom_site_type_symbol
 _atom_site_label
 _atom_site_symmetry_multiplicity
 _atom_site_fract_x
 _atom_site_fract_y
 _atom_site_fract_z
 _atom_site_occupancy
 _atom_site_pbe_bader_spin_density
 _atom_site_pbe_cm5_charge
 _atom_site_pbe_ddec_charge
 _atom_site_pbe_ddec_spin_density
 _atom_site_pbe_ddec_sum_bond_order
 _atom_site_pbe_magmom
Cu  Cu0  1  0.88366242  0.36297798  0.48020588  1  0  0.217162  0.120888  0  2.710188  0
Cu  Cu1  1  0.61634072  0.51979391  0.63701710  1  0  0.217136  0.120925  0  2.710139  0
Cu  Cu2  1  0.11634364  0.63701294  0.51979356  1  0  0.217112  0.120903  0  2.710129  0
Cu  Cu3  1  0.38366570  0.48020488  0.36297928  1  0  0.217153  0.120874  0  2.710129  0
H  H4  1  0.16267884  0.21001895  0.52225982  1  0  0.269294  0.220431  0  0.988528  0
H  H5  1  0.33734445  0.47774723  0.78997941  1  0  0.26938  0.220458  0  0.988844  0
H  H6  1  0.83734006  0.78997067  0.47774477  1  0  0.269312  0.22036  0  0.988801  0
H  H7  1  0.66267643  0.52226339  0.21002392  1  0  0.269315  0.220337  0  0.988743  0
H  H8  1  0.00932352  0.01559934  0.23131431  1  0  0.090237  0.084987  0  1.009371  0
H  H9  1  0.49066280  0.76869741  0.98439557  1  0  0.090213  0.084898  0  1.009279  0
H  H10  1  0.99066382  0.98439288  0.76869188  1  0  0.090228  0.084936  0  1.009238  0
H  H11  1  0.50933383  0.23131581  0.01560213  1  0  0.090221  0.084939  0  1.009328  0
H  H12  1  0.79177676  0.96294952  0.29962899  1  0  0.090088  0.077947  0  1.022867  0
H  H13  1  0.70821398  0.70038787  0.03705524  1  0  0.090106  0.077896  0  1.022993  0
H  H14  1  0.20821126  0.03705190  0.70038159  1  0  0.09013  0.077915  0  1.023006  0
H  H15  1  0.29179319  0.29962667  0.96294750  1  0  0.090143  0.077943  0  1.022967  0
H  H16  1  0.79431875  0.11502412  0.62433825  1  0  0.088954  0.074598  0  1.019186  0
H  H17  1  0.70567153  0.37565201  0.88496063  1  0  0.088984  0.074742  0  1.019308  0
H  H18  1  0.20565560  0.88495627  0.37564300  1  0  0.088951  0.074695  0  1.019321  0
H  H19  1  0.29433136  0.62434415  0.11503077  1  0  0.088946  0.074643  0  1.019263  0
H  H20  1  0.00975301  0.27336844  0.76912188  1  0  0.086314  0.068543  0  1.036735  0
H  H21  1  0.49024221  0.23088730  0.72663660  1  0  0.086318  0.068627  0  1.036813  0
H  H22  1  0.99023093  0.72663428  0.23088439  1  0  0.086324  0.068601  0  1.036822  0
H  H23  1  0.50975466  0.76912068  0.27336659  1  0  0.086325  0.068553  0  1.036784  0
C  C24  1  0.95605977  0.99719340  0.33505842  1  0  -0.09111  -0.067038  0  3.896203  0
C  C25  1  0.54394177  0.66494409  0.00282029  1  0  -0.091143  -0.066933  0  3.896073  0
C  C26  1  0.04393856  0.00281457  0.66493697  1  0  -0.091153  -0.066992  0  3.896228  0
C  C27  1  0.45606356  0.33506259  0.99719329  1  0  -0.091139  -0.066995  0  3.896229  0
C  C28  1  0.95872668  0.14631427  0.64749855  1  0  -0.089733  -0.058938  0  3.887547  0
C  C29  1  0.54129178  0.35249769  0.85368507  1  0  -0.089904  -0.059321  0  3.887462  0
C  C30  1  0.04128030  0.85368058  0.35249149  1  0  -0.089879  -0.059202  0  3.887349  0
C  C31  1  0.45871880  0.64750636  0.14631758  1  0  -0.089725  -0.058978  0  3.887462  0
I  I32  1  0.99683446  0.36254857  0.20241453  1  0  -0.146689  -0.255798  0  2.171094  0
I  I33  1  0.50317169  0.79758520  0.63744805  1  0  -0.146683  -0.255801  0  2.171073  0
I  I34  1  0.00317105  0.63744628  0.79758444  1  0  -0.146676  -0.255795  0  2.171068  0
I  I35  1  0.49683211  0.20241491  0.36255210  1  0  -0.146671  -0.25579  0  2.171119  0
N  N36  1  0.01069014  0.16751654  0.49991761  1  0  -0.514503  -0.265637  0  3.528566  0
N  N37  1  0.48929651  0.50009240  0.83247110  1  0  -0.514464  -0.265535  0  3.528351  0
N  N38  1  0.98929720  0.83247569  0.50009651  1  0  -0.51437  -0.265425  0  3.528319  0
N  N39  1  0.51070451  0.49992081  0.16751683  1  0  -0.514502  -0.265461  0  3.528477  0
