# generated using pymatgen
data_CuHC2(N2O)2
_symmetry_space_group_name_H-M   'P 1'
_cell_length_a   4.85755939
_cell_length_b   9.40136291
_cell_length_c   10.42963527
_cell_angle_alpha   90.00007500
_cell_angle_beta   90.00220710
_cell_angle_gamma   89.99971083
_symmetry_Int_Tables_number   1
_chemical_formula_structural   CuHC2(N2O)2
_chemical_formula_sum   'Cu4 H4 C8 N16 O8'
_cell_volume   476.29723224
_cell_formula_units_Z   4
loop_
 _symmetry_equiv_pos_site_id
 _symmetry_equiv_pos_as_xyz
  1  'x, y, z'
loop_
 _atom_site_type_symbol
 _atom_site_label
 _atom_site_symmetry_multiplicity
 _atom_site_fract_x
 _atom_site_fract_y
 _atom_site_fract_z
 _atom_site_occupancy
 _atom_site_hle17_bader_spin_density
 _atom_site_hle17_ddec_charge
 _atom_site_hle17_ddec_spin_density
 _atom_site_hle17_ddec_sum_bond_order
 _atom_site_hle17_magmom
 _atom_site_hse06_10hf_bader_spin_density
 _atom_site_hse06_10hf_ddec_charge
 _atom_site_hse06_10hf_ddec_spin_density
 _atom_site_hse06_10hf_ddec_sum_bond_order
 _atom_site_hse06_10hf_magmom
 _atom_site_hse06_bader_spin_density
 _atom_site_hse06_ddec_charge
 _atom_site_hse06_ddec_spin_density
 _atom_site_hse06_ddec_sum_bond_order
 _atom_site_hse06_magmom
 _atom_site_pbe_bader_spin_density
 _atom_site_pbe_cm5_charge
 _atom_site_pbe_ddec_charge
 _atom_site_pbe_ddec_spin_density
 _atom_site_pbe_ddec_sum_bond_order
 _atom_site_pbe_magmom
Cu  Cu0  1  0.14559125  0.85358183  0.59128324  1  0  0.520698  0  1.820805  0  0  0.371546  0  2.313082  0  0  0.360176  0  2.273661  0  0  0.593928  0.381768  0  2.336483  0
Cu  Cu1  1  0.35441148  0.14640498  0.09128929  1  0  0.520676  0  1.820633  0  0  0.371534  0  2.312854  0  0  0.360223  0  2.273433  0  0  0.593873  0.381739  0  2.336254  0
Cu  Cu2  1  0.85440722  0.35358451  0.90870695  1  0  0.520652  0  1.820843  0  0  0.371566  0  2.313106  0  0  0.360187  0  2.27366  0  0  0.593955  0.38181  0  2.336478  0
Cu  Cu3  1  0.64556832  0.64641002  0.40870789  1  0  0.520564  0  1.820605  0  0  0.371444  0  2.312854  0  0  0.360133  0  2.273405  0  0  0.593863  0.381656  0  2.336221  0
H  H4  1  0.81098211  0.13195482  0.68233419  1  0  0.106287  0  0.958055  0  0  0.113035  0  1.022207  0  0  0.114769  0  1.020598  0  0  0.134976  0.111755  0  1.023447  0
H  H5  1  0.68900150  0.86804574  0.18236300  1  0  0.106377  0  0.957974  0  0  0.113114  0  1.022133  0  0  0.114853  0  1.020514  0  0  0.134933  0.111821  0  1.023362  0
H  H6  1  0.18901444  0.63195557  0.81765864  1  0  0.106259  0  0.957967  0  0  0.112984  0  1.022176  0  0  0.114719  0  1.020557  0  0  0.134967  0.111699  0  1.023453  0
H  H7  1  0.31100492  0.36804116  0.31764402  1  0  0.106328  0  0.958002  0  0  0.11315  0  1.022043  0  0  0.114889  0  1.020423  0  0  0.134954  0.11185  0  1.023306  0
C  C8  1  0.28751594  0.99271379  0.84532704  1  0  0.312271  0  3.742626  0  0  0.263422  0  4.014021  0  0  0.265052  0  4.035762  0  0  0.297433  0.258312  0  3.998001  0
C  C9  1  0.21248924  0.00728936  0.34533038  1  0  0.311992  0  3.742797  0  0  0.263273  0  4.014216  0  0  0.26491  0  4.035947  0  0  0.297316  0.258074  0  3.998156  0
C  C10  1  0.71247498  0.49271538  0.65468249  1  0  0.311903  0  3.742811  0  0  0.263199  0  4.014175  0  0  0.264835  0  4.035912  0  0  0.297233  0.261962  0  4.000206  0
C  C11  1  0.78752487  0.50727875  0.15467048  1  0  0.312173  0  3.742639  0  0  0.26332  0  4.014069  0  0  0.264953  0  4.035796  0  0  0.297387  0.262074  0  4.000101  0
C  C12  1  0.96421846  0.09901690  0.75159780  1  0  0.226276  0  3.650072  0  0  0.163324  0  3.932123  0  0  0.169741  0  3.94814  0  0  0.141427  0.159755  0  3.920613  0
C  C13  1  0.53576264  0.90098164  0.25161334  1  0  0.225985  0  3.650185  0  0  0.162997  0  3.93225  0  0  0.169403  0  3.948294  0  0  0.141262  0.159438  0  3.92071  0
C  C14  1  0.03576812  0.59902325  0.74839787  1  0  0.226518  0  3.649898  0  0  0.163505  0  3.931954  0  0  0.169916  0  3.94799  0  0  0.141494  0.159966  0  3.920474  0
C  C15  1  0.46424346  0.40097763  0.24838892  1  0  0.226115  0  3.649998  0  0  0.16305  0  3.932014  0  0  0.169454  0  3.948062  0  0  0.141308  0.159523  0  3.920493  0
N  N16  1  0.00871199  0.16884851  0.86253177  1  0  -0.216212  0  3.284723  0  0  -0.161415  0  3.622637  0  0  -0.165198  0  3.622757  0  0  -0.27786  -0.159253  0  3.621979  0
N  N17  1  0.49128020  0.83115254  0.36254487  1  0  -0.216143  0  3.284704  0  0  -0.161219  0  3.62249  0  0  -0.165013  0  3.622631  0  0  -0.277738  -0.159069  0  3.62183  0
N  N18  1  0.99127802  0.66884905  0.63746205  1  0  -0.21646  0  3.284875  0  0  -0.16153  0  3.622702  0  0  -0.165317  0  3.622828  0  0  -0.277864  -0.159358  0  3.622102  0
N  N19  1  0.50872041  0.33114718  0.13745731  1  0  -0.216257  0  3.284508  0  0  -0.161221  0  3.622217  0  0  -0.16502  0  3.622369  0  0  -0.277725  -0.159062  0  3.621615  0
N  N20  1  0.21632531  0.10011996  0.92415129  1  0  -0.257095  0  3.298305  0  0  -0.204338  0  3.63363  0  0  -0.201859  0  3.632217  0  0  -0.277986  -0.20682  0  3.63508  0
N  N21  1  0.28366580  0.89987906  0.42416074  1  0  -0.256923  0  3.298432  0  0  -0.204186  0  3.633714  0  0  -0.201693  0  3.632268  0  0  -0.278007  -0.206677  0  3.635194  0
N  N22  1  0.78366332  0.60011349  0.57584917  1  0  -0.256775  0  3.298238  0  0  -0.204094  0  3.633504  0  0  -0.201613  0  3.632087  0  0  -0.277896  -0.206398  0  3.634085  0
N  N23  1  0.71633002  0.39987627  0.07583864  1  0  -0.256854  0  3.298479  0  0  -0.204197  0  3.633775  0  0  -0.201702  0  3.632324  0  0  -0.277942  -0.206508  0  3.634374  0
N  N24  1  0.13436462  0.98748275  0.73681084  1  0  -0.401138  0  3.304197  0  0  -0.334054  0  3.628816  0  0  -0.34436  0  3.638221  0  0  -0.375026  -0.326608  0  3.621562  0
N  N25  1  0.36565013  0.01252556  0.23682557  1  0  -0.40088  0  3.304214  0  0  -0.333792  0  3.62879  0  0  -0.344103  0  3.638214  0  0  -0.374895  -0.326352  0  3.621539  0
N  N26  1  0.86565106  0.48748199  0.76319005  1  0  -0.401087  0  3.304164  0  0  -0.333993  0  3.628721  0  0  -0.344296  0  3.638116  0  0  -0.374995  -0.326371  0  3.620651  0
N  N27  1  0.63435776  0.51252082  0.26317434  1  0  -0.401075  0  3.303896  0  0  -0.33401  0  3.628557  0  0  -0.344318  0  3.637972  0  0  -0.375027  -0.326382  0  3.62045  0
N  N28  1  0.50091075  0.89564357  0.87341042  1  0  0.421812  0  3.977055  0  0  0.469168  0  4.252905  0  0  0.491224  0  4.258097  0  0  0.041664  0.467398  0  4.229272  0
N  N29  1  0.99911335  0.10436898  0.37340751  1  0  0.421796  0  3.976825  0  0  0.468738  0  4.253284  0  0  0.490799  0  4.258467  0  0  0.041769  0.467259  0  4.229182  0
N  N30  1  0.49909348  0.39563716  0.62659133  1  0  0.421876  0  3.976364  0  0  0.468939  0  4.252611  0  0  0.490997  0  4.257799  0  0  0.041788  0.453859  0  4.249847  0
N  N31  1  0.00089157  0.60435822  0.12659058  1  0  0.421976  0  3.976761  0  0  0.469329  0  4.252598  0  0  0.491405  0  4.257765  0  0  0.04181  0.454248  0  4.249826  0
O  O32  1  0.64373333  0.91743286  0.97143527  1  0  -0.35549  0  1.779304  0  0  -0.341208  0  1.994855  0  0  -0.345878  0  1.986127  0  0  -0.141303  -0.343762  0  1.995501  0
O  O33  1  0.85628857  0.08259899  0.47142115  1  0  -0.355447  0  1.779459  0  0  -0.341018  0  1.9952  0  0  -0.345679  0  1.986463  0  0  -0.141367  -0.343689  0  1.995711  0
O  O34  1  0.35625628  0.41741496  0.52857321  1  0  -0.355408  0  1.779161  0  0  -0.341001  0  1.994792  0  0  -0.345671  0  1.986065  0  0  -0.141279  -0.339032  0  2.001827  0
O  O35  1  0.14371244  0.58255793  0.02857596  1  0  -0.355567  0  1.779345  0  0  -0.341253  0  1.994866  0  0  -0.34591  0  1.986117  0  0  -0.141343  -0.339302  0  2.001917  0
O  O36  1  0.53660300  0.79406458  0.79754513  1  0  -0.357446  0  1.794764  0  0  -0.339545  0  2.013393  0  0  -0.343745  0  2.004737  0  0  -0.137237  -0.342593  0  2.01446  0
O  O37  1  0.96340865  0.20594892  0.29753307  1  0  -0.357368  0  1.794339  0  0  -0.339431  0  2.013276  0  0  -0.343661  0  2.004637  0  0  -0.137228  -0.342567  0  2.014186  0
O  O38  1  0.46340635  0.29406050  0.70246321  1  0  -0.357426  0  1.794283  0  0  -0.339517  0  2.013104  0  0  -0.343733  0  2.004456  0  0  -0.137319  -0.338039  0  2.02058  0
O  O39  1  0.03659732  0.70593818  0.20246034  1  0  -0.357482  0  1.794428  0  0  -0.339616  0  2.013068  0  0  -0.34387  0  2.00444  0  0  -0.1373  -0.338128  0  2.020522  0
