# generated using pymatgen
data_MnH3(CN2)4
_symmetry_space_group_name_H-M   'P 1'
_cell_length_a   5.92806880
_cell_length_b   8.02383692
_cell_length_c   8.96799381
_cell_angle_alpha   88.22668324
_cell_angle_beta   84.23377543
_cell_angle_gamma   67.75052838
_symmetry_Int_Tables_number   1
_chemical_formula_structural   MnH3(CN2)4
_chemical_formula_sum   'Mn2 H6 C8 N16'
_cell_volume   392.80023366
_cell_formula_units_Z   2
loop_
 _symmetry_equiv_pos_site_id
 _symmetry_equiv_pos_as_xyz
  1  'x, y, z'
loop_
 _atom_site_type_symbol
 _atom_site_label
 _atom_site_symmetry_multiplicity
 _atom_site_fract_x
 _atom_site_fract_y
 _atom_site_fract_z
 _atom_site_occupancy
 _atom_site_hse06_10hf_ddec_charge
 _atom_site_hse06_10hf_ddec_spin_density
 _atom_site_hse06_10hf_ddec_sum_bond_order
 _atom_site_hse06_10hf_magmom
 _atom_site_hse06_ddec_charge
 _atom_site_hse06_ddec_spin_density
 _atom_site_hse06_ddec_sum_bond_order
 _atom_site_hse06_magmom
 _atom_site_pbe_cm5_charge
 _atom_site_pbe_ddec_charge
 _atom_site_pbe_ddec_spin_density
 _atom_site_pbe_ddec_sum_bond_order
 _atom_site_pbe_magmom
Mn  Mn0  1  0.19728394  0.59760083  0.99854456  1  0.795397  -4.724868  2.675047  -4.409  0.850788  -4.838059  2.615985  -4.505  0.661607  0.752964  -4.605814  2.719846  -4.303
Mn  Mn1  1  0.80638948  0.36619095  0.00573439  1  0.65252  1.510345  3.392251  1.454  0.769971  1.666669  3.307247  1.597  0.71741  0.589015  1.341296  3.44297  1.291
H  H2  1  0.92446398  0.71861791  0.34939668  1  0.091722  -0.00098  1.018122  0.0  0.093391  -0.000731  1.01512  0.0  0.121906  0.08942  -0.001188  1.021908  0.0
H  H3  1  0.36157419  0.71902292  0.64806216  1  0.091947  -0.000792  1.01167  0.0  0.093588  -0.000558  1.008523  0.0  0.122608  0.089765  -0.000999  1.015333  -0.001
H  H4  1  0.06367472  0.29957572  0.67289858  1  0.095698  -0.000303  1.014045  0.0  0.097241  -0.000179  1.011837  0.0  0.126855  0.093692  -0.0004  1.016886  0.0
H  H5  1  0.63111212  0.29883157  0.33453714  1  0.095447  -0.000422  1.017939  0.0  0.096417  -0.000321  1.016069  0.0  0.127017  0.093732  -0.000494  1.020729  0.0
H  H6  1  0.69927075  0.01792953  0.48080919  1  0.128292  -0.001065  1.041464  0.0  0.131218  -0.001002  1.042442  0.0  0.112605  0.125915  -0.001127  1.041646  0.0
H  H7  1  0.28027415  0.01861571  0.52085397  1  0.130446  -0.001005  1.034963  0.0  0.13332  -0.000976  1.035818  0.0  0.113618  0.128104  -0.001038  1.035277  0.0
C  C8  1  0.89583005  0.84477390  0.29075840  1  0.145121  -0.027622  3.911138  -0.021  0.161197  -0.028687  3.924466  -0.022  0.066832  0.132135  -0.023015  3.906112  -0.017
C  C9  1  0.26311323  0.84515535  0.70891964  1  0.153717  -0.017097  3.907058  -0.012  0.170206  -0.014148  3.91983  -0.01  0.071579  0.140635  -0.016078  3.901978  -0.012
C  C10  1  0.09826603  0.16753390  0.72200450  1  0.138781  -0.001007  3.899842  0.004  0.154041  0.001928  3.917514  0.007  0.065246  0.127241  -0.002021  3.891149  0.002
C  C11  1  0.73162613  0.16730401  0.28287907  1  0.134337  -0.007424  3.896582  -0.001  0.150144  -0.006746  3.915106  0.001  0.062037  0.12207  -0.00678  3.887694  -0.001
C  C12  1  0.76849303  0.01123142  0.36347037  1  -0.173041  -0.032894  3.947957  -0.023  -0.191434  -0.038927  3.972916  -0.027  -0.076338  -0.162942  -0.027373  3.935647  -0.019
C  C13  1  0.21968251  0.01165538  0.63841828  1  -0.176936  -0.037509  3.94194  -0.026  -0.194878  -0.047209  3.966513  -0.033  -0.076788  -0.167132  -0.029769  3.929524  -0.021
C  C14  1  0.95227218  0.99398982  0.07628215  1  0.251569  -0.078166  3.997907  -0.055  0.260807  -0.102892  4.020011  -0.072  0.2297  0.24312  -0.057088  3.986786  -0.04
C  C15  1  0.05870019  0.99393889  0.92619881  1  0.254316  -0.065581  4.010526  -0.044  0.264101  -0.083129  4.032327  -0.055  0.231977  0.245802  -0.049604  3.999492  -0.033
N  N16  1  0.98646630  0.83747648  0.14751170  1  -0.296396  -0.0423  3.50381  -0.018  -0.319027  -0.041025  3.517801  -0.016  -0.308561  -0.281609  -0.044484  3.497252  -0.022
N  N17  1  0.18395647  0.83722859  0.85281563  1  -0.296105  -0.047725  3.484516  -0.027  -0.318416  -0.050161  3.4979  -0.029  -0.305899  -0.281391  -0.047363  3.478009  -0.027
N  N18  1  0.01496405  0.16266365  0.86868070  1  -0.278824  -0.061158  3.545861  -0.064  -0.313636  -0.075509  3.565034  -0.077  -0.338122  -0.258696  -0.046668  3.535308  -0.051
N  N19  1  0.82042814  0.16332331  0.13582765  1  -0.274625  -0.066674  3.565155  -0.069  -0.312303  -0.079683  3.584973  -0.08  -0.345681  -0.252726  -0.051555  3.554039  -0.055
N  N20  1  0.06014515  0.41235789  0.12410852  1  -0.510367  -0.023434  3.20854  -0.01  -0.552552  -0.019963  3.215931  -0.007  -0.31137  -0.48277  -0.025197  3.204407  -0.011
N  N21  1  0.52170137  0.40756540  0.87674159  1  -0.511282  -0.02367  3.239715  -0.008  -0.553526  -0.02035  3.246126  -0.005  -0.316856  -0.48349  -0.026036  3.235796  -0.01
N  N22  1  0.92969548  0.57568268  0.86424850  1  -0.530711  -0.021253  3.09723  -0.006  -0.570514  -0.013782  3.10673  0.001  -0.287822  -0.502045  -0.026981  3.089055  -0.011
N  N23  1  0.51395084  0.55755254  0.12916353  1  -0.52241  -0.017306  3.218478  -0.007  -0.562297  -0.014151  3.224335  -0.005  -0.311339  -0.493656  -0.018687  3.211911  -0.007
N  N24  1  0.11033867  0.35144452  0.24785813  1  0.429518  -0.006506  4.412817  -0.005  0.447385  -0.002503  4.444088  -0.001  0.108974  0.417777  -0.010048  4.389899  -0.009
N  N25  1  0.53631879  0.34810936  0.75152610  1  0.433406  -0.007718  4.411844  -0.006  0.451871  -0.003822  4.44223  -0.003  0.111114  0.421321  -0.01128  4.389393  -0.01
N  N26  1  0.87199518  0.64188106  0.74409273  1  0.426171  -0.008361  4.482747  -0.006  0.444425  -0.003649  4.51668  -0.002  0.098952  0.413992  -0.011995  4.456512  -0.01
N  N27  1  0.49977832  0.62922467  0.24889879  1  0.428075  -0.006767  4.439051  -0.005  0.446451  -0.002118  4.469386  0.0  0.104827  0.41578  -0.010415  4.414404  -0.009
N  N28  1  0.16070458  0.29597693  0.36618822  1  -0.309973  -0.041711  2.60982  -0.037  -0.314631  -0.040908  2.619742  -0.036  -0.134089  -0.304316  -0.043975  2.601696  -0.038
N  N29  1  0.54264721  0.29505305  0.63165123  1  -0.31033  -0.043421  2.61307  -0.038  -0.3145  -0.04098  2.622228  -0.036  -0.133373  -0.304868  -0.046918  2.605362  -0.041
N  N30  1  0.82107418  0.70875552  0.62865528  1  -0.357064  -0.057074  2.634659  -0.051  -0.366796  -0.05732  2.645976  -0.051  -0.16259  -0.34618  -0.059103  2.62446  -0.052
N  N31  1  0.47381351  0.70372520  0.36225835  1  -0.328413  -0.038531  2.612748  -0.034  -0.332052  -0.039107  2.621236  -0.035  -0.146033  -0.320656  -0.037801  2.603971  -0.033
