# generated using pymatgen
data_CuH8C12(NO2)2
_symmetry_space_group_name_H-M   'P 1'
_cell_length_a   5.26942780
_cell_length_b   7.88612351
_cell_length_c   8.03289939
_cell_angle_alpha   62.04810796
_cell_angle_beta   70.73260121
_cell_angle_gamma   69.60178466
_symmetry_Int_Tables_number   1
_chemical_formula_structural   CuH8C12(NO2)2
_chemical_formula_sum   'Cu1 H8 C12 N2 O4'
_cell_volume   270.72453986
_cell_formula_units_Z   1
loop_
 _symmetry_equiv_pos_site_id
 _symmetry_equiv_pos_as_xyz
  1  'x, y, z'
loop_
 _atom_site_type_symbol
 _atom_site_label
 _atom_site_symmetry_multiplicity
 _atom_site_fract_x
 _atom_site_fract_y
 _atom_site_fract_z
 _atom_site_occupancy
 _atom_site_hle17_ddec_charge
 _atom_site_hle17_ddec_spin_density
 _atom_site_hle17_ddec_sum_bond_order
 _atom_site_hle17_magmom
 _atom_site_hse06_10hf_ddec_charge
 _atom_site_hse06_10hf_ddec_spin_density
 _atom_site_hse06_10hf_ddec_sum_bond_order
 _atom_site_hse06_10hf_magmom
 _atom_site_hse06_ddec_charge
 _atom_site_hse06_ddec_spin_density
 _atom_site_hse06_ddec_sum_bond_order
 _atom_site_hse06_magmom
 _atom_site_pbe_cm5_charge
 _atom_site_pbe_ddec_charge
 _atom_site_pbe_ddec_spin_density
 _atom_site_pbe_ddec_sum_bond_order
 _atom_site_pbe_magmom
Cu  Cu0  1  0.49999089  0.50000096  0.49999594  1  0.833552  0.685879  1.8351  0.504  0.802643  0.768185  2.230487  0.613  0.892336  0.832621  2.160831  0.696  0.751239  0.748569  0.722774  2.277722  0.558
H  H1  1  0.39746953  0.06288681  0.35707564  1  0.129312  0.000851  0.9645  0.001  0.135695  0.000742  1.029679  0.001  0.139919  0.000495  1.027371  0.001  0.111199  0.132577  0.000975  1.031425  0.001
H  H2  1  0.60252464  0.93711678  0.64293555  1  0.129213  0.000854  0.964485  0.001  0.135575  0.000742  1.029717  0.001  0.139796  0.000495  1.027412  0.001  0.111155  0.132455  0.000975  1.031459  0.001
H  H3  1  0.31972232  0.07099356  0.06092803  1  0.099538  0.000105  0.937547  0.0  0.112468  -9.7e-05  0.991619  0.0  0.115245  -0.000106  0.989245  0.0  0.113132  0.110274  -7.9e-05  0.993638  0.0
H  H4  1  0.68029745  0.92900567  0.93907866  1  0.099636  0.000106  0.93747  0.0  0.112547  -9.7e-05  0.991568  0.0  0.115323  -0.000106  0.989195  0.0  0.113157  0.110355  -7.9e-05  0.993584  0.0
H  H5  1  0.87815967  0.27222878  0.94802980  1  0.123  0.0007  0.968526  0.0  0.130827  0.000696  1.029907  0.001  0.135816  0.000518  1.026703  0.0  0.109108  0.127184  0.00084  1.032384  0.001
H  H6  1  0.12185877  0.72775782  0.05197115  1  0.122962  0.000703  0.968572  0.0  0.13079  0.000696  1.029943  0.001  0.135773  0.000519  1.026754  0.0  0.10911  0.127153  0.00084  1.032407  0.001
H  H7  1  0.52187816  0.46210116  0.14078820  1  0.081492  0.000814  0.965007  0.002  0.089374  0.000753  1.03174  0.001  0.09128  0.000568  1.030349  0.001  0.118947  0.087854  0.000877  1.032807  0.002
H  H8  1  0.47812760  0.53788903  0.85920255  1  0.081527  0.000814  0.964998  0.002  0.089422  0.000753  1.031695  0.001  0.091329  0.000568  1.030305  0.001  0.118994  0.087903  0.000876  1.032764  0.002
C  C9  1  0.01635721  0.26701006  0.58061405  1  0.594906  -0.007502  3.942041  -0.006  0.550302  -0.001536  4.249346  -0.001  0.585936  -0.001518  4.244106  -0.001  0.201069  0.525996  -0.001602  4.252018  -0.002
C  C10  1  0.98363024  0.73299697  0.41938831  1  0.594987  -0.007504  3.941847  -0.006  0.550422  -0.001536  4.249089  -0.001  0.586068  -0.001517  4.243828  -0.001  0.201164  0.526104  -0.001602  4.251787  -0.002
C  C11  1  0.00162069  0.26126726  0.39883706  1  0.094752  -0.009068  3.733103  -0.006  0.100593  -0.002605  3.971658  -0.001  0.103353  -0.003814  3.992759  -0.002  0.109983  0.09855  -0.001664  3.958136  -0.001
C  C12  1  0.99836982  0.73873697  0.60116336  1  0.094718  -0.009049  3.733089  -0.006  0.100556  -0.002604  3.971632  -0.001  0.103309  -0.003817  3.992732  -0.002  0.109944  0.098519  -0.001664  3.958123  -0.001
C  C13  1  0.20855638  0.15226159  0.30262549  1  -0.113868  0.005941  3.678762  0.006  -0.133979  0.002274  3.922655  0.002  -0.139719  0.002211  3.942586  0.002  -0.072197  -0.130177  0.002297  3.909503  0.002
C  C14  1  0.79144293  0.84773933  0.69738079  1  -0.113716  0.005925  3.678663  0.006  -0.133823  0.002274  3.922555  0.002  -0.139565  0.002211  3.942497  0.002  -0.072163  -0.130021  0.002297  3.909401  0.002
C  C15  1  0.16401906  0.15587182  0.13892317  1  0.020236  -0.011906  3.663257  -0.007  0.002798  -0.004328  3.910392  -0.002  0.007254  -0.004912  3.926011  -0.003  -0.05505  -0.000217  -0.003775  3.900162  -0.002
C  C16  1  0.83599223  0.84412320  0.86108319  1  0.02003  -0.01189  3.663317  -0.007  0.002604  -0.00433  3.910453  -0.002  0.00706  -0.004914  3.926069  -0.003  -0.055093  -0.000411  -0.003775  3.900224  -0.002
C  C17  1  0.91661820  0.26667734  0.07606530  1  -0.097602  0.009063  3.680176  0.01  -0.112023  0.003797  3.927621  0.005  -0.117968  0.003468  3.94556  0.004  -0.074323  -0.108175  0.003931  3.91567  0.005
C  C18  1  0.08339228  0.73331516  0.92393478  1  -0.097509  0.009045  3.68021  0.01  -0.111933  0.003798  3.927687  0.005  -0.117876  0.003468  3.945626  0.004  -0.074352  -0.108084  0.003932  3.915731  0.005
C  C19  1  0.72015874  0.37231485  0.17945919  1  0.126487  -0.00982  3.693202  -0.007  0.097699  -0.002294  3.949443  -0.001  0.105639  -0.003889  3.969154  -0.003  0.050915  0.092768  -0.00104  3.936505  0.0
C  C20  1  0.27984635  0.62767646  0.82053746  1  0.126352  -0.009805  3.693069  -0.006  0.097565  -0.002294  3.949321  -0.001  0.105502  -0.003891  3.969029  -0.003  0.050892  0.092642  -0.00104  3.936386  0.0
N  N21  1  0.76335488  0.36864297  0.33651865  1  -0.305787  0.070416  3.38061  0.09  -0.260341  0.048646  3.671991  0.066  -0.288841  0.040513  3.692506  0.059  -0.355307  -0.243926  0.052735  3.660573  0.068
N  N22  1  0.23663726  0.63135719  0.66347690  1  -0.305632  0.070414  3.380389  0.09  -0.260178  0.04865  3.671746  0.066  -0.288674  0.040517  3.69226  0.059  -0.355251  -0.243785  0.052738  3.660355  0.068
O  O23  1  0.78883195  0.36069876  0.65865078  1  -0.597956  0.088952  2.040737  0.123  -0.56874  0.060934  2.323116  0.092  -0.611274  0.046553  2.3151  0.076  -0.327795  -0.540892  0.070029  2.328809  0.1
O  O24  1  0.21114717  0.63931010  0.34134623  1  -0.59803  0.088947  2.040724  0.123  -0.568845  0.060932  2.32312  0.092  -0.61138  0.046552  2.315096  0.076  -0.327863  -0.540992  0.070027  2.328821  0.1
O  O25  1  0.23170308  0.18671036  0.64648822  1  -0.5713  0.018502  1.922681  0.025  -0.545993  0.008925  2.162016  0.014  -0.572802  0.003603  2.154067  0.007  -0.305296  -0.526098  0.015087  2.166432  0.021
O  O26  1  0.76828147  0.81330552  0.35351105  1  -0.571301  0.018511  1.922533  0.025  -0.546024  0.008926  2.161848  0.014  -0.572838  0.003603  2.15389  0.007  -0.305318  -0.526125  0.01509  2.166272  0.021
