# generated using pymatgen
data_CdH7C5O7
_symmetry_space_group_name_H-M   'P 1'
_cell_length_a   5.58317025
_cell_length_b   7.63221558
_cell_length_c   9.63129176
_cell_angle_alpha   110.47749784
_cell_angle_beta   102.21928202
_cell_angle_gamma   97.79529534
_symmetry_Int_Tables_number   1
_chemical_formula_structural   CdH7C5O7
_chemical_formula_sum   'Cd2 H14 C10 O14'
_cell_volume   365.77765314
_cell_formula_units_Z   2
loop_
 _symmetry_equiv_pos_site_id
 _symmetry_equiv_pos_as_xyz
  1  'x, y, z'
loop_
 _atom_site_type_symbol
 _atom_site_label
 _atom_site_symmetry_multiplicity
 _atom_site_fract_x
 _atom_site_fract_y
 _atom_site_fract_z
 _atom_site_occupancy
 _atom_site_hle17_bader_spin_density
 _atom_site_hle17_ddec_charge
 _atom_site_hle17_ddec_spin_density
 _atom_site_hle17_ddec_sum_bond_order
 _atom_site_hle17_magmom
 _atom_site_hse06_10hf_bader_spin_density
 _atom_site_hse06_10hf_ddec_charge
 _atom_site_hse06_10hf_ddec_spin_density
 _atom_site_hse06_10hf_ddec_sum_bond_order
 _atom_site_hse06_10hf_magmom
 _atom_site_hse06_bader_spin_density
 _atom_site_hse06_ddec_charge
 _atom_site_hse06_ddec_spin_density
 _atom_site_hse06_ddec_sum_bond_order
 _atom_site_hse06_magmom
 _atom_site_pbe_bader_spin_density
 _atom_site_pbe_cm5_charge
 _atom_site_pbe_ddec_charge
 _atom_site_pbe_ddec_spin_density
 _atom_site_pbe_ddec_sum_bond_order
 _atom_site_pbe_magmom
Cd  Cd0  1  0.52649193  0.58113133  0.33980662  1  0  1.320554  0  1.490192  0  0  1.148638  0  1.925241  0  0  1.206676  0  1.863925  0  0  0.784324  1.106476  0  1.968066  0
Cd  Cd1  1  0.47350795  0.41887052  0.66019557  1  0  1.320591  0  1.490152  0  0  1.148671  0  1.925197  0  0  1.206706  0  1.863883  0  0  0.784347  1.106511  0  1.96802  0
H  H2  1  0.64250039  0.05219428  0.83000033  1  0  0.103917  0  0.952153  0  0  0.111464  0  1.018992  0  0  0.115764  0  1.015631  0  0  0.107343  0.108356  0  1.021555  0
H  H3  1  0.35750044  0.94780471  0.17000011  1  0  0.103896  0  0.952172  0  0  0.111448  0  1.019005  0  0  0.115748  0  1.015647  0  0  0.107335  0.108338  0  1.021569  0
H  H4  1  0.05204602  0.63035511  0.18227746  1  0  0.429578  0  0.862621  0  0  0.400705  0  0.925878  0  0  0.411417  0  0.910474  0  0  0.292783  0.393034  0  0.936897  0
H  H5  1  0.94794931  0.36964387  0.81772439  1  0  0.429535  0  0.862636  0  0  0.400635  0  0.925959  0  0  0.411345  0  0.91056  0  0  0.292789  0.392965  0  0.936977  0
H  H6  1  0.24388988  0.60249417  0.07647800  1  0  0.416924  0  0.891815  0  0  0.384402  0  0.960947  0  0  0.395072  0  0.945551  0  0  0.290236  0.376847  0  0.971821  0
H  H7  1  0.75610684  0.39750337  0.92352257  1  0  0.416926  0  0.891935  0  0  0.384396  0  0.960982  0  0  0.39507  0  0.945581  0  0  0.290249  0.376842  0  0.971858  0
H  H8  1  0.67881076  0.72718806  0.13257413  1  0  0.435749  0  0.857042  0  0  0.403617  0  0.923952  0  0  0.413581  0  0.909684  0  0  0.299308  0.396392  0  0.934312  0
H  H9  1  0.32118596  0.27280951  0.86742541  1  0  0.435764  0  0.857056  0  0  0.403634  0  0.923931  0  0  0.4136  0  0.909662  0  0  0.299338  0.39641  0  0.934291  0
H  H10  1  0.88127254  0.87330573  0.29460301  1  0  0.417455  0  0.894957  0  0  0.380294  0  0.969229  0  0  0.392138  0  0.952283  0  0  0.286306  0.371756  0  0.98145  0
H  H11  1  0.11872645  0.12669325  0.70539824  1  0  0.417454  0  0.894954  0  0  0.380296  0  0.96922  0  0  0.39214  0  0.952275  0  0  0.286306  0.371759  0  0.981441  0
H  H12  1  0.28160214  0.78017124  0.56860605  1  0  0.437856  0  0.843676  0  0  0.405605  0  0.916038  0  0  0.415773  0  0.901166  0  0  0.299381  0.398287  0  0.926753  0
H  H13  1  0.71839358  0.21983505  0.43139172  1  0  0.43782  0  0.843729  0  0  0.405572  0  0.916083  0  0  0.41574  0  0.901209  0  0  0.299386  0.398252  0  0.926801  0
H  H14  1  0.26230102  0.90774863  0.46992163  1  0  0.438476  0  0.843333  0  0  0.408423  0  0.911665  0  0  0.417885  0  0.897865  0  0  0.30138  0.401668  0  0.921513  0
H  H15  1  0.73770019  0.09225763  0.53007680  1  0  0.438378  0  0.843323  0  0  0.40828  0  0.911803  0  0  0.417749  0  0.897999  0  0  0.301314  0.401531  0  0.921639  0
C  C16  1  0.06123379  0.09984567  0.16083124  1  0  -0.052994  0  3.707712  0  0  -0.039102  0  3.94552  0  0  -0.04196  0  3.96295  0  0  -0.006276  -0.037449  0  3.934371  0
C  C17  1  0.93877340  0.90015622  0.83916769  1  0  -0.0531  0  3.707677  0  0  -0.03922  0  3.945518  0  0  -0.042083  0  3.962944  0  0  -0.006348  -0.037576  0  3.934383  0
C  C18  1  0.85828408  0.12962445  0.06434335  1  0  -0.05685  0  3.717477  0  0  -0.045766  0  3.958309  0  0  -0.050104  0  3.977392  0  0  -0.011008  -0.042944  0  3.94577  0
C  C19  1  0.14171812  0.87037306  0.93565787  1  0  -0.056776  0  3.717386  0  0  -0.045697  0  3.95823  0  0  -0.050023  0  3.977304  0  0  -0.010968  -0.042873  0  3.945692  0
C  C20  1  0.80052156  0.02941613  0.90469007  1  0  -0.080749  0  3.707237  0  0  -0.114119  0  3.960561  0  0  -0.11438  0  3.97842  0  0  -0.082052  -0.114019  0  3.948811  0
C  C21  1  0.19948109  0.97058284  0.09531059  1  0  -0.080735  0  3.707242  0  0  -0.114109  0  3.960571  0  0  -0.114375  0  3.978431  0  0  -0.082043  -0.114009  0  3.948818  0
C  C22  1  0.70505038  0.26895591  0.12668870  1  0  0.65608  0  3.909068  0  0  0.598995  0  4.21017  0  0  0.632198  0  4.2048  0  0  0.208252  0.576478  0  4.212767  0
C  C23  1  0.29495504  0.73104015  0.87331249  1  0  0.656228  0  3.909269  0  0  0.599145  0  4.210343  0  0  0.632339  0  4.204981  0  0  0.20834  0.576627  0  4.21295  0
C  C24  1  0.13407077  0.19055852  0.33406355  1  0  0.693117  0  3.875962  0  0  0.631453  0  4.178697  0  0  0.66761  0  4.16851  0  0  0.220425  0.606569  0  4.185045  0
C  C25  1  0.86592961  0.80943907  0.66593435  1  0  0.693123  0  3.875945  0  0  0.631477  0  4.178636  0  0  0.667634  0  4.168448  0  0  0.220414  0.606595  0  4.18499  0
O  O26  1  0.57721652  0.33094915  0.03592831  1  0  -0.655101  0  2.029343  0  0  -0.585987  0  2.255126  0  0  -0.612026  0  2.246545  0  0  -0.316378  -0.567253  0  2.260224  0
O  O27  1  0.42278430  0.66904984  0.96407213  1  0  -0.655137  0  2.029477  0  0  -0.586045  0  2.255294  0  0  -0.612078  0  2.246713  0  0  -0.316405  -0.567301  0  2.260369  0
O  O28  1  0.71466990  0.32261677  0.26965138  1  0  -0.647384  0  2.03065  0  0  -0.57493  0  2.277239  0  0  -0.60525  0  2.26808  0  0  -0.309451  -0.553541  0  2.282979  0
O  O29  1  0.28533093  0.67738215  0.73035215  1  0  -0.64747  0  2.030746  0  0  -0.574994  0  2.277315  0  0  -0.605309  0  2.268156  0  0  -0.309495  -0.553606  0  2.283059  0
O  O30  1  0.07476881  0.08282058  0.40194869  1  0  -0.644037  0  2.042353  0  0  -0.574876  0  2.268503  0  0  -0.601608  0  2.257346  0  0  -0.303603  -0.555946  0  2.275839  0
O  O31  1  0.92523201  0.91717843  0.59805071  1  0  -0.644038  0  2.042379  0  0  -0.574864  0  2.268494  0  0  -0.601598  0  2.257341  0  0  -0.303607  -0.555932  0  2.275825  0
O  O32  1  0.26362669  0.36303068  0.40596005  1  0  -0.666894  0  2.087771  0  0  -0.587275  0  2.353819  0  0  -0.62123  0  2.341428  0  0  -0.316869  -0.562825  0  2.361518  0
O  O33  1  0.73637596  0.63696832  0.59403958  1  0  -0.666936  0  2.087813  0  0  -0.587305  0  2.353828  0  0  -0.621259  0  2.341436  0  0  -0.316861  -0.562853  0  2.361527  0
O  O34  1  0.18448566  0.56219350  0.15335281  1  0  -0.848204  0  1.923736  0  0  -0.784881  0  2.134072  0  0  -0.808993  0  2.100019  0  0  -0.588706  -0.767799  0  2.157815  0
O  O35  1  0.81551377  0.43780689  0.84664994  1  0  -0.848155  0  1.923861  0  0  -0.7848  0  2.134181  0  0  -0.808908  0  2.100113  0  0  -0.588722  -0.767722  0  2.157915  0
O  O36  1  0.78893807  0.73490290  0.23087976  1  0  -0.85213  0  1.919913  0  0  -0.782265  0  2.121184  0  0  -0.806434  0  2.08606  0  0  -0.568035  -0.765174  0  2.146103  0
O  O37  1  0.21106136  0.26509751  0.76912197  1  0  -0.852148  0  1.919934  0  0  -0.782282  0  2.121192  0  0  -0.806451  0  2.086067  0  0  -0.568066  -0.765192  0  2.146111  0
O  O38  1  0.36147949  0.82457176  0.50156664  1  0  -0.845342  0  1.869712  0  0  -0.784412  0  2.077253  0  0  -0.806148  0  2.045128  0  0  -0.587357  -0.768933  0  2.099763  0
O  O39  1  0.63852128  0.17543304  0.49843235  1  0  -0.845244  0  1.869732  0  0  -0.784221  0  2.077521  0  0  -0.805968  0  2.04537  0  0  -0.587307  -0.768745  0  2.100028  0
