# generated using pymatgen
data_NaH5C4(N4O)2
_symmetry_space_group_name_H-M   'P 1'
_cell_length_a   6.63110915
_cell_length_b   7.09629966
_cell_length_c   10.36824392
_cell_angle_alpha   105.99428930
_cell_angle_beta   99.44000008
_cell_angle_gamma   108.27879001
_symmetry_Int_Tables_number   1
_chemical_formula_structural   NaH5C4(N4O)2
_chemical_formula_sum   'Na2 H10 C8 N16 O4'
_cell_volume   428.25007877
_cell_formula_units_Z   2
loop_
 _symmetry_equiv_pos_site_id
 _symmetry_equiv_pos_as_xyz
  1  'x, y, z'
loop_
 _atom_site_type_symbol
 _atom_site_label
 _atom_site_symmetry_multiplicity
 _atom_site_fract_x
 _atom_site_fract_y
 _atom_site_fract_z
 _atom_site_occupancy
 _atom_site_hle17_bader_spin_density
 _atom_site_hle17_ddec_charge
 _atom_site_hle17_ddec_spin_density
 _atom_site_hle17_ddec_sum_bond_order
 _atom_site_hle17_magmom
 _atom_site_hse06_10hf_bader_spin_density
 _atom_site_hse06_10hf_ddec_charge
 _atom_site_hse06_10hf_ddec_spin_density
 _atom_site_hse06_10hf_ddec_sum_bond_order
 _atom_site_hse06_10hf_magmom
 _atom_site_hse06_bader_spin_density
 _atom_site_hse06_ddec_charge
 _atom_site_hse06_ddec_spin_density
 _atom_site_hse06_ddec_sum_bond_order
 _atom_site_hse06_magmom
 _atom_site_pbe_bader_spin_density
 _atom_site_pbe_cm5_charge
 _atom_site_pbe_ddec_charge
 _atom_site_pbe_ddec_spin_density
 _atom_site_pbe_ddec_sum_bond_order
 _atom_site_pbe_magmom
Na  Na0  1  0.52235793  0.77246255  0.41771172  1  0  0.861536  0  0.417806  0  0  0.785269  0  0.607032  0  0  0.798146  0  0.583241  0  0  0.665021  0.775937  0  0.62429  0
Na  Na1  1  0.47764189  0.22753623  0.58229053  1  0  0.86155  0  0.417781  0  0  0.785256  0  0.607059  0  0  0.798138  0  0.583272  0  0  0.665011  0.775922  0  0.62432  0
H  H2  1  0.26816119  0.54891555  0.06648225  1  0  0.089692  0  0.969767  0  0  0.087772  0  1.048895  0  0  0.09212  0  1.042942  0  0  0.121343  0.084704  0  1.052982  0
H  H3  1  0.73182114  0.45107360  0.93351549  1  0  0.089652  0  0.969791  0  0  0.087752  0  1.048924  0  0  0.0921  0  1.042966  0  0  0.121316  0.084681  0  1.053013  0
H  H4  1  0.19542292  0.81496092  0.58121742  1  0  0.388448  0  0.926694  0  0  0.348891  0  1.005289  0  0  0.359488  0  0.989745  0  0  0.284819  0.340813  0  1.017084  0
H  H5  1  0.80457752  0.18503944  0.41878519  1  0  0.388427  0  0.926705  0  0  0.348863  0  1.005313  0  0  0.359459  0  0.98977  0  0  0.284797  0.340783  0  1.017109  0
H  H6  1  0.09008149  0.82227777  0.43629128  1  0  0.427775  0  0.868678  0  0  0.40231  0  0.922868  0  0  0.412579  0  0.907666  0  0  0.28805  0.394899  0  0.933929  0
H  H7  1  0.90991895  0.17772259  0.56371133  1  0  0.427742  0  0.86872  0  0  0.402272  0  0.92292  0  0  0.412541  0  0.907719  0  0  0.288029  0.394859  0  0.933984  0
H  H8  1  0.81578726  0.59321944  0.26431297  1  0  0.381703  0  0.939165  0  0  0.339504  0  1.02158  0  0  0.350132  0  1.00639  0  0  0.278945  0.332034  0  1.032228  0
H  H9  1  0.18421285  0.40678407  0.73568924  1  0  0.381705  0  0.939158  0  0  0.33951  0  1.02157  0  0  0.350138  0  1.006379  0  0  0.278951  0.332041  0  1.032217  0
H  H10  1  0.82218350  0.81381590  0.25002387  1  0  0.391371  0  0.918462  0  0  0.351178  0  0.998252  0  0  0.361777  0  0.982805  0  0  0.281399  0.343678  0  1.009176  0
H  H11  1  0.17782065  0.18618608  0.74998134  1  0  0.391445  0  0.918377  0  0  0.351228  0  0.998187  0  0  0.361827  0  0.98274  0  0  0.281413  0.343727  0  1.009111  0
C  C12  1  0.22709321  0.76701985  0.95878790  1  0  -0.002534  0  3.867321  0  0  -0.007157  0  4.140706  0  0  -0.014176  0  4.164392  0  0  0.080461  -0.003132  0  4.125019  0
C  C13  1  0.77290623  0.23298207  0.04121105  1  0  -0.002401  0  3.867184  0  0  -0.007068  0  4.140639  0  0  -0.014085  0  4.164327  0  0  0.08049  -0.003026  0  4.124929  0
C  C14  1  0.23406984  0.97279329  0.97461486  1  0  0.225094  0  3.856416  0  0  0.179613  0  4.14832  0  0  0.190819  0  4.165979  0  0  0.214357  0.172579  0  4.135987  0
C  C15  1  0.76593635  0.02721027  0.02538507  1  0  0.224972  0  3.856513  0  0  0.179462  0  4.1485  0  0  0.190668  0  4.166158  0  0  0.214287  0.172425  0  4.136162  0
C  C16  1  0.31747719  0.03657034  0.21871939  1  0  0.420627  0  3.789313  0  0  0.375923  0  4.07257  0  0  0.393703  0  4.085772  0  0  0.343961  0.364454  0  4.063782  0
C  C17  1  0.68252166  0.96343000  0.78128016  1  0  0.420631  0  3.789301  0  0  0.375838  0  4.072669  0  0  0.393621  0  4.085864  0  0  0.343906  0.36437  0  4.063882  0
C  C18  1  0.26763053  0.70597447  0.07606932  1  0  0.144607  0  3.660217  0  0  0.105079  0  3.929404  0  0  0.119207  0  3.938181  0  0  0.077537  0.096074  0  3.923449  0
C  C19  1  0.73235906  0.29401789  0.92392395  1  0  0.144604  0  3.660223  0  0  0.105062  0  3.92941  0  0  0.119187  0  3.938189  0  0  0.077514  0.096054  0  3.923451  0
N  N20  1  0.28149637  0.10762601  0.10831535  1  0  -0.071655  0  3.610745  0  0  0.008945  0  3.83774  0  0  -0.004029  0  3.860691  0  0  -0.097851  0.017151  0  3.822287  0
N  N21  1  0.71850892  0.89237913  0.89168575  1  0  -0.071635  0  3.610695  0  0  0.009008  0  3.837711  0  0  -0.003964  0  3.860658  0  0  -0.097843  0.017212  0  3.822258  0
N  N22  1  0.36292353  0.20174442  0.33554615  1  0  -0.336489  0  2.93583  0  0  -0.306604  0  3.224065  0  0  -0.320076  0  3.233566  0  0  -0.247812  -0.297804  0  3.21758  0
N  N23  1  0.63707747  0.79825752  0.66445392  1  0  -0.336427  0  2.935789  0  0  -0.306512  0  3.224044  0  0  -0.319981  0  3.233539  0  0  -0.247809  -0.297711  0  3.217556  0
N  N24  1  0.31201907  0.83988535  0.20475293  1  0  -0.394086  0  3.027315  0  0  -0.351058  0  3.300794  0  0  -0.367879  0  3.311247  0  0  -0.331641  -0.340347  0  3.295158  0
N  N25  1  0.68797882  0.16010866  0.79524243  1  0  -0.394036  0  3.027349  0  0  -0.351  0  3.300934  0  0  -0.367823  0  3.311387  0  0  -0.331551  -0.340289  0  3.295299  0
N  N26  1  0.19723819  0.99545156  0.84997854  1  0  -0.327849  0  2.944865  0  0  -0.298023  0  3.230104  0  0  -0.310565  0  3.242868  0  0  -0.217813  -0.289233  0  3.22105  0
N  N27  1  0.80276223  0.00454880  0.15002310  1  0  -0.327817  0  2.944831  0  0  -0.297981  0  3.230099  0  0  -0.310523  0  3.242864  0  0  -0.217809  -0.289189  0  3.221038  0
N  N28  1  0.18679990  0.66689089  0.81865831  1  0  -0.234061  0  3.03158  0  0  -0.201361  0  3.302791  0  0  -0.208699  0  3.318278  0  0  -0.185649  -0.195849  0  3.292301  0
N  N29  1  0.81319646  0.33311099  0.18133937  1  0  -0.234111  0  3.031598  0  0  -0.20138  0  3.302804  0  0  -0.208721  0  3.318294  0  0  -0.185634  -0.195872  0  3.292309  0
N  N30  1  0.16944555  0.80363120  0.75703224  1  0  -0.025254  0  2.957809  0  0  -0.001415  0  3.238808  0  0  -0.001253  0  3.251126  0  0  -0.064458  -0.001006  0  3.230492  0
N  N31  1  0.83055390  0.19637072  0.24296671  1  0  -0.025286  0  2.95785  0  0  -0.001439  0  3.238826  0  0  -0.001279  0  3.251147  0  0  -0.064485  -0.001029  0  3.230512  0
N  N32  1  0.30733293  0.31298446  0.15850487  1  0  -0.098575  0  2.864196  0  0  -0.102781  0  3.15529  0  0  -0.104637  0  3.166068  0  0  -0.070742  -0.101506  0  3.147985  0
N  N33  1  0.69267386  0.68702068  0.84149445  1  0  -0.098494  0  2.864143  0  0  -0.102689  0  3.155228  0  0  -0.104546  0  3.166004  0  0  -0.070669  -0.101413  0  3.14792  0
N  N34  1  0.35599586  0.36378800  0.29484581  1  0  -0.067177  0  3.009222  0  0  -0.056576  0  3.320928  0  0  -0.052013  0  3.328142  0  0  -0.095874  -0.058987  0  3.31566  0
N  N35  1  0.64400941  0.63621713  0.70515433  1  0  -0.067284  0  3.009354  0  0  -0.056688  0  3.321069  0  0  -0.052127  0  3.328286  0  0  -0.095894  -0.059098  0  3.3158  0
O  O36  1  0.23387344  0.85366362  0.50123868  1  0  -0.918158  0  1.829429  0  0  -0.8673  0  2.016547  0  0  -0.883655  0  1.982724  0  0  -0.696958  -0.855564  0  2.041811  0
O  O37  1  0.76612729  0.14633359  0.49876240  1  0  -0.918095  0  1.82946  0  0  -0.867236  0  2.016593  0  0  -0.88359  0  1.982772  0  0  -0.696911  -0.855499  0  2.041856  0
O  O38  1  0.82139892  0.73669960  0.31629371  1  0  -0.855029  0  1.883698  0  0  -0.792217  0  2.061415  0  0  -0.810994  0  2.028876  0  0  -0.627094  -0.778904  0  2.084126  0
O  O39  1  0.17860309  0.26330078  0.68371099  1  0  -0.855126  0  1.883579  0  0  -0.792252  0  2.061318  0  0  -0.811038  0  2.028798  0  0  -0.62711  -0.778939  0  2.08403  0
