# generated using pymatgen
data_ZnH2C8(NO2)2
_symmetry_space_group_name_H-M   'P 1'
_cell_length_a   8.12615212
_cell_length_b   9.25721724
_cell_length_c   10.89214190
_cell_angle_alpha   90.64286037
_cell_angle_beta   101.41386304
_cell_angle_gamma   84.63687461
_symmetry_Int_Tables_number   1
_chemical_formula_structural   ZnH2C8(NO2)2
_chemical_formula_sum   'Zn2 H4 C16 N4 O8'
_cell_volume   799.62484260
_cell_formula_units_Z   2
loop_
 _symmetry_equiv_pos_site_id
 _symmetry_equiv_pos_as_xyz
  1  'x, y, z'
loop_
 _atom_site_type_symbol
 _atom_site_label
 _atom_site_symmetry_multiplicity
 _atom_site_fract_x
 _atom_site_fract_y
 _atom_site_fract_z
 _atom_site_occupancy
 _atom_site_pbe_bader_charge
 _atom_site_pbe_bader_spin_density
 _atom_site_pbe_cm5_charge
 _atom_site_pbe_ddec_charge
 _atom_site_pbe_ddec_spin_density
 _atom_site_pbe_ddec_sum_bond_order
 _atom_site_pbe_magmom
Zn  Zn0  1  0.33292040  0.51416502  0.47500432  1  1.294295  0  0.688864  0.848667  0  2.401085  0
Zn  Zn1  1  0.66708927  0.48581006  0.52499778  1  1.314297  0  0.688846  0.848535  0  2.401229  0
H  H2  1  0.32427286  0.71209361  0.89885676  1  0.129443  0  0.120798  0.124712  0  0.957422  0
H  H3  1  0.67569978  0.28791652  0.10114161  1  0.129749  0  0.120825  0.124777  0  0.957437  0
H  H4  1  0.20676382  0.48218733  0.02071883  1  0.084731  0  0.113464  0.112534  0  0.972902  0
H  H5  1  0.79321207  0.51782806  0.97927797  1  0.08493  0  0.113452  0.112626  0  0.972912  0
C  C6  1  0.49900428  0.77885030  0.49710180  1  1.664798  0  0.234542  0.67303  0  4.198151  0
C  C7  1  0.50104637  0.22113512  0.50293493  1  1.666085  0  0.23443  0.672767  0  4.198056  0
C  C8  1  0.51472596  0.50662580  0.74134528  1  1.566392  0  0.219726  0.604077  0  4.16518  0
C  C9  1  0.48524620  0.49337134  0.25864379  1  1.565375  0  0.219764  0.60417  0  4.165788  0
C  C10  1  0.40101425  0.61710283  0.94439936  1  -0.03239  0  -0.050573  -0.070335  0  3.576591  0
C  C11  1  0.59895920  0.38291696  0.05558988  1  -0.033765  0  -0.050559  -0.070374  0  3.576351  0
C  C12  1  0.33658068  0.49109514  0.01067350  1  0.011057  0  -0.058369  -0.077469  0  3.60407  0
C  C13  1  0.66339911  0.50892331  0.98931623  1  0.010832  0  -0.05835  -0.077614  0  3.604445  0
C  C14  1  0.55604336  0.62372331  0.05690133  1  0.109758  0  0.027456  0.065058  0  3.724756  0
C  C15  1  0.44392713  0.37626846  0.94308207  1  0.110902  0  0.027294  0.064874  0  3.724944  0
C  C16  1  0.48881367  0.49398814  0.12243828  1  0.033308  0  0.009984  -0.030706  0  3.618944  0
C  C17  1  0.51116313  0.50602836  0.87757611  1  0.031819  0  0.01001  -0.030535  0  3.618979  0
C  C18  1  0.49957296  0.93455814  0.49861279  1  0.045561  0  -0.010829  -0.093845  0  3.899309  0
C  C19  1  0.50048453  0.06540968  0.50142165  1  -0.206028  0  -0.01044  -0.093232  0  3.898842  0
C  C20  1  0.61286391  0.75181604  0.11854509  1  0.837006  0  0.169143  0.223256  0  4.00851  0
C  C21  1  0.38713231  0.24820061  0.88143672  1  0.836919  0  0.169219  0.223397  0  4.00957  0
N  N22  1  0.94240663  0.48985166  0.51731734  1  -0.032653  0  0.089838  0.129488  0  2.91899  0
N  N23  1  0.05758315  0.51021396  0.48267333  1  0.099446  0  0.089771  0.129368  0  2.918875  0
N  N24  1  0.65947901  0.85688028  0.16910126  1  -1.112374  0  -0.31516  -0.360107  0  2.690536  0
N  N25  1  0.34054185  0.14314073  0.83087144  1  -1.112468  0  -0.315232  -0.360233  0  2.691101  0
O  O26  1  0.35489213  0.72917747  0.47526717  1  -1.118961  0  -0.303471  -0.522405  0  2.247349  0
O  O27  1  0.64515708  0.27079368  0.52470300  1  -1.119289  0  -0.303418  -0.522179  0  2.247611  0
O  O28  1  0.35730009  0.29438205  0.48159195  1  -1.130609  0  -0.308187  -0.540103  0  2.268454  0
O  O29  1  0.64274468  0.70558532  0.51846916  1  -1.130949  0  -0.308312  -0.540207  0  2.268635  0
O  O30  1  0.37093746  0.51681186  0.66781892  1  -1.159895  0  -0.316829  -0.560509  0  2.306349  0
O  O31  1  0.62902132  0.48325288  0.33217115  1  -1.159826  0  -0.316959  -0.560583  0  2.306639  0
O  O32  1  0.34148341  0.50544492  0.28961675  1  -1.138367  0  -0.310343  -0.525417  0  2.267971  0
O  O33  1  0.65849567  0.49446112  0.71037905  1  -1.139129  0  -0.310394  -0.525483  0  2.268143  0
