# generated using pymatgen
data_CuH12C10(NO4)2
_symmetry_space_group_name_H-M   'P 1'
_cell_length_a   5.46542023
_cell_length_b   7.88410439
_cell_length_c   8.29774864
_cell_angle_alpha   80.93061669
_cell_angle_beta   77.97897335
_cell_angle_gamma   73.16329746
_symmetry_Int_Tables_number   1
_chemical_formula_structural   CuH12C10(NO4)2
_chemical_formula_sum   'Cu1 H12 C10 N2 O8'
_cell_volume   332.90524615
_cell_formula_units_Z   1
loop_
 _symmetry_equiv_pos_site_id
 _symmetry_equiv_pos_as_xyz
  1  'x, y, z'
loop_
 _atom_site_type_symbol
 _atom_site_label
 _atom_site_symmetry_multiplicity
 _atom_site_fract_x
 _atom_site_fract_y
 _atom_site_fract_z
 _atom_site_occupancy
 _atom_site_hle17_ddec_charge
 _atom_site_hle17_ddec_spin_density
 _atom_site_hle17_ddec_sum_bond_order
 _atom_site_hle17_magmom
 _atom_site_hse06_10hf_ddec_charge
 _atom_site_hse06_10hf_ddec_spin_density
 _atom_site_hse06_10hf_ddec_sum_bond_order
 _atom_site_hse06_10hf_magmom
 _atom_site_hse06_ddec_charge
 _atom_site_hse06_ddec_spin_density
 _atom_site_hse06_ddec_sum_bond_order
 _atom_site_hse06_magmom
 _atom_site_pbe_cm5_charge
 _atom_site_pbe_ddec_charge
 _atom_site_pbe_ddec_spin_density
 _atom_site_pbe_ddec_sum_bond_order
 _atom_site_pbe_magmom
Cu  Cu0  1  0.00001772  0.99998576  0.00001258  1  0.937044  0.674026  1.753192  0.497  0.921638  0.770467  2.155955  0.617  1.025472  0.840694  2.067861  0.71  0.713152  0.859229  0.720476  2.215527  0.557
H  H1  1  0.78196297  0.83564719  0.56986108  1  0.142819  0.00068  0.960871  0.001  0.152832  0.000685  1.033093  0.001  0.155512  0.000474  1.031685  0.001  0.095995  0.150888  0.000862  1.034081  0.001
H  H2  1  0.21803994  0.16437171  0.43012369  1  0.142786  0.000684  0.960868  0.001  0.152809  0.000686  1.033103  0.001  0.15549  0.000474  1.031695  0.001  0.095959  0.150864  0.000862  1.034098  0.001
H  H3  1  0.89532649  0.76110735  0.75887931  1  0.149761  -0.000669  0.949441  0.0  0.164299  -0.000362  1.016764  0.0  0.166791  -0.000396  1.015924  0.0  0.105508  0.162415  -0.000321  1.017496  0.0
H  H4  1  0.10469827  0.23892118  0.24109095  1  0.149666  -0.000666  0.949358  0.0  0.164265  -0.000362  1.016622  0.0  0.166757  -0.000396  1.015784  0.0  0.105495  0.162378  -0.000321  1.017361  0.0
H  H5  1  0.66290040  0.66723285  0.70827776  1  0.141892  -0.000552  0.939857  0.0  0.163205  -3.2e-05  0.993718  0.0  0.165817  -3.6e-05  0.99246  0.0  0.101006  0.161289  -1.5e-05  0.994635  0.0
H  H6  1  0.33713519  0.33277433  0.29170126  1  0.141866  -0.00055  0.939961  0.0  0.163252  -3.2e-05  0.993726  0.0  0.165861  -3.6e-05  0.992474  0.0  0.101073  0.161338  -1.5e-05  0.994643  0.0
H  H7  1  0.52964306  0.43182796  0.83036573  1  0.138276  0.000352  0.934591  0.0  0.158086  0.000439  0.992304  0.001  0.159952  0.000257  0.992072  0.0  0.103774  0.156668  0.000596  0.992541  0.001
H  H8  1  0.47030959  0.56819173  0.16963883  1  0.1383  0.000354  0.934485  0.0  0.15807  0.000439  0.992241  0.001  0.159943  0.000258  0.992005  0.0  0.103756  0.156652  0.000596  0.992481  0.001
H  H9  1  0.29063127  0.50418380  0.70172603  1  0.159242  -0.00027  0.936461  0.0  0.17664  -1.1e-05  0.996786  0.0  0.17924  -7.8e-05  0.995255  0.0  0.109596  0.174781  4.3e-05  0.99788  0.0
H  H10  1  0.70932282  0.49579328  0.29826664  1  0.159409  -0.000263  0.936385  0.0  0.176721  -1.1e-05  0.996771  0.0  0.179314  -7.9e-05  0.995252  0.0  0.109614  0.174859  4.3e-05  0.997867  0.0
H  H11  1  0.19590243  0.50818216  0.92088916  1  0.148218  -0.000489  0.94611  0.0  0.1669  1.2e-05  1.004676  0.0  0.170599  -2.1e-05  1.002339  0.0  0.101755  0.164186  6.6e-05  1.006373  0.0
H  H12  1  0.80404924  0.49181899  0.07909665  1  0.14823  -0.000485  0.946121  0.0  0.166928  1.2e-05  1.004641  0.0  0.17063  -2.1e-05  1.002307  0.0  0.101801  0.164214  6.6e-05  1.006339  0.0
C  C13  1  0.72363278  0.78914714  0.70007693  1  -0.423096  0.011598  3.655613  0.013  -0.503246  0.00704  3.891889  0.008  -0.510907  0.004587  3.895135  0.006  -0.251525  -0.497558  0.008994  3.88938  0.01
C  C14  1  0.27638615  0.21085987  0.29990713  1  -0.422967  0.011588  3.655502  0.013  -0.503234  0.007041  3.891723  0.008  -0.510911  0.004587  3.894986  0.006  -0.251551  -0.497521  0.008996  3.889156  0.01
C  C15  1  0.50509495  0.92517384  0.78787228  1  0.501658  -0.010458  3.703333  -0.009  0.483544  -0.003568  3.982587  -0.003  0.515115  -0.004208  3.987393  -0.003  0.142517  0.462179  -0.002842  3.97883  -0.003
C  C16  1  0.49492035  0.07481972  0.21212040  1  0.501593  -0.010466  3.703332  -0.009  0.483553  -0.003568  3.982508  -0.003  0.515112  -0.00421  3.987284  -0.003  0.142528  0.46217  -0.002841  3.978752  -0.003
C  C17  1  0.49600729  0.10975587  0.76176066  1  -0.293039  0.004998  3.620849  0.008  -0.318224  0.001965  3.911144  0.004  -0.345402  0.000498  3.933453  0.003  0.02433  -0.300382  0.003307  3.896285  0.006
C  C18  1  0.50399778  0.89023743  0.23825295  1  -0.292949  0.005002  3.620953  0.008  -0.318248  0.001965  3.911279  0.004  -0.345348  0.0005  3.933505  0.003  0.024332  -0.300349  0.003308  3.896356  0.006
C  C19  1  0.30067865  0.24856832  0.84088185  1  0.506938  -0.01067  3.701404  -0.009  0.489529  -0.003752  3.978073  -0.003  0.521965  -0.00431  3.98132  -0.003  0.14585  0.467715  -0.003163  3.975194  -0.003
C  C20  1  0.69932606  0.75142628  0.15913524  1  0.506546  -0.010654  3.701635  -0.009  0.489218  -0.003751  3.978305  -0.003  0.521615  -0.004311  3.981553  -0.003  0.14568  0.46739  -0.003163  3.975409  -0.003
C  C21  1  0.33053678  0.43433655  0.82264851  1  -0.417806  0.011334  3.640603  0.013  -0.500692  0.006918  3.877453  0.008  -0.508249  0.004542  3.880071  0.006  -0.244261  -0.495138  0.008787  3.875359  0.01
C  C22  1  0.66944572  0.56566469  0.17735297  1  -0.417978  0.011316  3.640525  0.013  -0.50077  0.006918  3.877355  0.008  -0.508337  0.004542  3.879986  0.006  -0.244298  -0.495217  0.008786  3.87527  0.01
N  N23  1  0.71272203  0.16099302  0.65295873  1  0.544201  -0.002429  3.911693  -0.002  0.571595  -0.001265  4.211136  -0.001  0.595863  -0.001058  4.220631  -0.001  0.045003  0.555156  -0.001228  4.20496  -0.001
N  N24  1  0.28728257  0.83901095  0.34705575  1  0.544316  -0.002467  3.911733  -0.002  0.571772  -0.001262  4.211123  -0.001  0.596024  -0.001065  4.220602  -0.001  0.04505  0.555314  -0.001226  4.204941  -0.001
O  O25  1  0.93757115  0.07556674  0.67407911  1  -0.396726  -0.000785  1.808214  0.001  -0.385342  -0.000848  2.045144  0.0  -0.401623  -0.00112  2.040502  0.0  -0.133307  -0.37498  -0.000443  2.048804  0.001
O  O26  1  0.06243491  0.92444261  0.32593192  1  -0.396796  -0.000744  1.808006  0.001  -0.385491  -0.000848  2.045018  0.0  -0.401774  -0.001108  2.040379  0.0  -0.133308  -0.375129  -0.000442  2.048683  0.001
O  O27  1  0.66683533  0.28891538  0.54480160  1  -0.354778  -0.001173  1.733892  -0.001  -0.328347  -0.000696  1.932098  -0.001  -0.340017  -0.001022  1.928858  -0.001  -0.120726  -0.320742  -0.00029  1.934578  0.0
O  O28  1  0.33315625  0.71109782  0.45521474  1  -0.354735  -0.001194  1.73403  -0.001  -0.328337  -0.000693  1.93224  -0.001  -0.340031  -0.001032  1.929029  -0.001  -0.120749  -0.320727  -0.000287  1.934722  0.0
O  O29  1  0.32692283  0.86544309  0.88383165  1  -0.501616  0.081932  2.087127  0.112  -0.470109  0.05464  2.363965  0.082  -0.513339  0.041031  2.356057  0.067  -0.290503  -0.44208  0.06348  2.368878  0.09
O  O30  1  0.67308272  0.13454110  0.11615432  1  -0.501596  0.081921  2.087178  0.112  -0.470053  0.054632  2.363939  0.082  -0.513281  0.041026  2.356024  0.067  -0.29051  -0.442035  0.063473  2.368862  0.09
O  O31  1  0.09897591  0.22192786  0.93911599  1  -0.514531  0.079604  2.109084  0.109  -0.481579  0.053604  2.386448  0.081  -0.524134  0.040518  2.376861  0.067  -0.291626  -0.454097  0.06193  2.392496  0.088
O  O32  1  0.90105963  0.77804408  0.06092381  1  -0.514147  0.079592  2.109066  0.109  -0.481184  0.053599  2.386266  0.081  -0.523715  0.040516  2.376685  0.067  -0.29141  -0.453731  0.061924  2.392373  0.088
