# generated using pymatgen
data_H10PbC12(BrN)2
_symmetry_space_group_name_H-M   'P 1'
_cell_length_a   4.16668953
_cell_length_b   8.97079878
_cell_length_c   9.61218116
_cell_angle_alpha   74.79989855
_cell_angle_beta   87.00455422
_cell_angle_gamma   80.61070969
_symmetry_Int_Tables_number   1
_chemical_formula_structural   H10PbC12(BrN)2
_chemical_formula_sum   'H10 Pb1 C12 Br2 N2'
_cell_volume   342.05778458
_cell_formula_units_Z   1
loop_
 _symmetry_equiv_pos_site_id
 _symmetry_equiv_pos_as_xyz
  1  'x, y, z'
loop_
 _atom_site_type_symbol
 _atom_site_label
 _atom_site_symmetry_multiplicity
 _atom_site_fract_x
 _atom_site_fract_y
 _atom_site_fract_z
 _atom_site_occupancy
 _atom_site_hle17_bader_spin_density
 _atom_site_hle17_ddec_charge
 _atom_site_hle17_ddec_spin_density
 _atom_site_hle17_ddec_sum_bond_order
 _atom_site_hle17_magmom
 _atom_site_hse06_10hf_bader_spin_density
 _atom_site_hse06_10hf_ddec_charge
 _atom_site_hse06_10hf_ddec_spin_density
 _atom_site_hse06_10hf_ddec_sum_bond_order
 _atom_site_hse06_10hf_magmom
 _atom_site_hse06_bader_spin_density
 _atom_site_hse06_ddec_charge
 _atom_site_hse06_ddec_spin_density
 _atom_site_hse06_ddec_sum_bond_order
 _atom_site_hse06_magmom
 _atom_site_pbe_bader_spin_density
 _atom_site_pbe_cm5_charge
 _atom_site_pbe_ddec_charge
 _atom_site_pbe_ddec_spin_density
 _atom_site_pbe_ddec_sum_bond_order
 _atom_site_pbe_magmom
H  H0  1  0.21745048  0.52240460  0.83718687  1  0  0.067826  0  0.953537  0  0  0.074326  0  1.024122  0  0  0.07695  0  1.021878  0  0  0.102149  0.072308  0  1.025848  0
H  H1  1  0.78210232  0.47770681  0.16272925  1  0  0.068039  0  0.953291  0  0  0.074435  0  1.023946  0  0  0.077041  0  1.021747  0  0  0.102081  0.072442  0  1.02563  0
H  H2  1  0.20419889  0.66786040  0.02874959  1  0  0.104824  0  0.964997  0  0  0.112012  0  1.032353  0  0  0.115623  0  1.030941  0  0  0.097033  0.108773  0  1.034723  0
H  H3  1  0.79528362  0.33224350  0.97117777  1  0  0.104978  0  0.964637  0  0  0.111954  0  1.032236  0  0  0.115566  0  1.030821  0  0  0.096953  0.108718  0  1.034605  0
H  H4  1  0.68063616  0.01175047  0.72270615  1  0  0.106341  0  0.964125  0  0  0.113755  0  1.031013  0  0  0.11747  0  1.029153  0  0  0.097881  0.11095  0  1.032594  0
H  H5  1  0.31898223  0.98833284  0.27728627  1  0  0.106489  0  0.963878  0  0  0.113806  0  1.030831  0  0  0.117518  0  1.028978  0  0  0.098036  0.110992  0  1.032429  0
H  H6  1  0.67680874  0.85180495  0.54704012  1  0  0.069137  0  0.959727  0  0  0.075448  0  1.029344  0  0  0.078014  0  1.027364  0  0  0.1021  0.073088  0  1.031686  0
H  H7  1  0.32314905  0.14823162  0.45297443  1  0  0.068959  0  0.960052  0  0  0.075377  0  1.029542  0  0  0.07791  0  1.02759  0  0  0.102058  0.072989  0  1.031911  0
H  H8  1  0.31913918  0.87958299  0.10669013  1  0  0.093077  0  0.983453  0  0  0.100945  0  1.053363  0  0  0.104383  0  1.051101  0  0  0.088185  0.098367  0  1.055258  0
H  H9  1  0.68071231  0.12042210  0.89332526  1  0  0.093191  0  0.983361  0  0  0.100954  0  1.053333  0  0  0.104318  0  1.051161  0  0  0.088219  0.098423  0  1.055185  0
Pb  Pb10  1  0.50131438  0.49977111  0.50008848  1  0  0.982498  0  1.787131  0  0  0.789236  0  2.25063  0  0  0.846527  0  2.213158  0  0  0.406002  0.749083  0  2.275985  0
C  C11  1  0.31796470  0.63148122  0.81712368  1  0  0.118955  0  3.754458  0  0  0.090224  0  4.006195  0  0  0.097068  0  4.026263  0  0  0.037845  0.086059  0  3.992417  0
C  C12  1  0.68169155  0.36860219  0.18281296  1  0  0.118806  0  3.754484  0  0  0.090146  0  4.006227  0  0  0.09699  0  4.026265  0  0  0.038093  0.085972  0  3.992467  0
C  C13  1  0.31110791  0.71217520  0.92281022  1  0  -0.162362  0  3.691573  0  0  -0.17608  0  3.93142  0  0  -0.184455  0  3.953227  0  0  -0.084137  -0.171261  0  3.917637  0
C  C14  1  0.68846179  0.28791602  0.07713327  1  0  -0.162225  0  3.692029  0  0  -0.175756  0  3.931834  0  0  -0.184125  0  3.953635  0  0  -0.083856  -0.170947  0  3.918062  0
C  C15  1  0.44259533  0.85233565  0.89313815  1  0  0.137909  0  3.782977  0  0  0.154986  0  4.008921  0  0  0.16036  0  4.031326  0  0  0.008105  0.151954  0  3.993152  0
C  C16  1  0.55708650  0.14772034  0.10684407  1  0  0.137633  0  3.783443  0  0  0.154685  0  4.009417  0  0  0.160064  0  4.031803  0  0  0.008057  0.151648  0  3.993676  0
C  C17  1  0.57445341  0.90426832  0.75390702  1  0  -0.152234  0  3.684735  0  0  -0.169405  0  3.928197  0  0  -0.176567  0  3.948791  0  0  -0.083129  -0.163878  0  3.913357  0
C  C18  1  0.42522499  0.09579932  0.24607771  1  0  -0.15202  0  3.684021  0  0  -0.169102  0  3.927676  0  0  -0.176259  0  3.948264  0  0  -0.083064  -0.16357  0  3.91281  0
C  C19  1  0.57157744  0.81610244  0.65502757  1  0  0.11821  0  3.740254  0  0  0.090684  0  3.989812  0  0  0.096982  0  4.009713  0  0  0.038362  0.086834  0  3.976602  0
C  C20  1  0.42826500  0.18393667  0.34496642  1  0  0.118295  0  3.739874  0  0  0.09069  0  3.989449  0  0  0.097021  0  4.009344  0  0  0.038229  0.086863  0  3.976242  0
C  C21  1  0.43667223  0.93382134  0.00597718  1  0  -0.088778  0  3.696167  0  0  -0.109878  0  3.946674  0  0  -0.113004  0  3.966736  0  0  -0.082907  -0.107746  0  3.933022  0
C  C22  1  0.56313499  0.06619711  0.99402642  1  0  -0.088579  0  3.696351  0  0  -0.109492  0  3.946843  0  0  -0.112569  0  3.966976  0  0  -0.082771  -0.107399  0  3.933158  0
Br  Br23  1  0.94684805  0.70574666  0.31613965  1  0  -0.554179  0  0.937699  0  0  -0.477005  0  1.222839  0  0  -0.500561  0  1.204876  0  0  -0.213468  -0.458955  0  1.236022  0
Br  Br24  1  0.05525014  0.29376338  0.68408897  1  0  -0.554311  0  0.937999  0  0  -0.477199  0  1.223474  0  0  -0.500773  0  1.205504  0  0  -0.213363  -0.459127  0  1.236635  0
N  N25  1  0.44614935  0.68163798  0.68504140  1  0  -0.35016  0  3.230899  0  0  -0.274845  0  3.484626  0  0  -0.295699  0  3.508344  0  0  -0.311272  -0.261264  0  3.469207  0
N  N26  1  0.55374791  0.31838791  0.31493503  1  0  -0.350319  0  3.231223  0  0  -0.2749  0  3.484853  0  0  -0.295793  0  3.508642  0  0  -0.311424  -0.261317  0  3.469421  0
