# generated using pymatgen
data_CuH7CN9
_symmetry_space_group_name_H-M   'P 1'
_cell_length_a   5.66401773
_cell_length_b   6.74187647
_cell_length_c   10.11669894
_cell_angle_alpha   77.53531208
_cell_angle_beta   73.75407420
_cell_angle_gamma   65.14513382
_symmetry_Int_Tables_number   1
_chemical_formula_structural   CuH7CN9
_chemical_formula_sum   'Cu2 H14 C2 N18'
_cell_volume   334.39076241
_cell_formula_units_Z   2
loop_
 _symmetry_equiv_pos_site_id
 _symmetry_equiv_pos_as_xyz
  1  'x, y, z'
loop_
 _atom_site_type_symbol
 _atom_site_label
 _atom_site_symmetry_multiplicity
 _atom_site_fract_x
 _atom_site_fract_y
 _atom_site_fract_z
 _atom_site_occupancy
 _atom_site_hle17_ddec_charge
 _atom_site_hle17_ddec_spin_density
 _atom_site_hle17_ddec_sum_bond_order
 _atom_site_hle17_magmom
 _atom_site_hse06_10hf_ddec_charge
 _atom_site_hse06_10hf_ddec_spin_density
 _atom_site_hse06_10hf_ddec_sum_bond_order
 _atom_site_hse06_10hf_magmom
 _atom_site_hse06_ddec_charge
 _atom_site_hse06_ddec_spin_density
 _atom_site_hse06_ddec_sum_bond_order
 _atom_site_hse06_magmom
 _atom_site_pbe_cm5_charge
 _atom_site_pbe_ddec_charge
 _atom_site_pbe_ddec_spin_density
 _atom_site_pbe_ddec_sum_bond_order
 _atom_site_pbe_magmom
Cu  Cu0  1  0.00000227  0.50001865  0.99999233  1  0.798626  -0.672012  1.881426  -0.504  0.773879  -0.767195  2.273723  -0.623  0.850201  -0.823969  2.216174  -0.697  0.747587  0.727361  -0.728637  2.314033  -0.575
Cu  Cu1  1  0.50007570  0.99993945  0.50001481  1  0.800347  -0.673511  1.880769  -0.505  0.774969  -0.767477  2.274018  -0.623  0.851448  -0.824197  2.216354  -0.698  0.747135  0.728822  -0.728576  2.313191  -0.575
H  H2  1  0.55402887  0.74629094  0.91704996  1  0.334374  0.001636  0.899593  0.001  0.323954  -3e-05  0.959098  0.0  0.331134  0.000168  0.954704  0.0  0.284207  0.319023  -0.000214  0.962196  -0.001
H  H3  1  0.21754203  0.75379350  0.58284746  1  0.33482  0.001627  0.899285  0.001  0.324695  -4.1e-05  0.958119  0.0  0.331863  0.000156  0.953727  0.0  0.284214  0.319607  -0.000215  0.961437  -0.001
H  H4  1  0.44595539  0.25373284  0.08294328  1  0.334411  0.001641  0.899659  0.001  0.323987  -3e-05  0.959144  0.0  0.33117  0.000167  0.954742  0.0  0.28425  0.319054  -0.000214  0.962237  -0.001
H  H5  1  0.78253239  0.24616441  0.41715886  1  0.334883  0.001623  0.899256  0.001  0.324693  -4.1e-05  0.958158  0.0  0.331885  0.000156  0.953734  0.0  0.284183  0.319585  -0.000215  0.961498  -0.001
H  H6  1  0.67099620  0.49764856  0.87383095  1  0.310567  0.00153  0.950093  0.001  0.290685  -2.4e-05  1.032509  0.0  0.297637  0.000263  1.028489  0.0  0.278625  0.285803  -0.000302  1.035504  0.0
H  H7  1  0.04253649  0.00244268  0.62608848  1  0.310801  0.001473  0.949969  0.001  0.290671  -4.4e-05  1.032705  0.0  0.297598  0.000251  1.028736  0.0  0.278333  0.285728  -0.000306  1.035807  0.0
H  H8  1  0.32898968  0.50235696  0.12619269  1  0.310639  0.00153  0.95004  0.001  0.290679  -2.4e-05  1.032561  0.0  0.297633  0.000262  1.028534  0.0  0.278606  0.285796  -0.000303  1.035556  0.0
H  H9  1  0.95753648  0.99753348  0.37389099  1  0.310844  0.001474  0.949724  0.001  0.290653  -4.4e-05  1.032508  0.0  0.297582  0.000252  1.028537  0.0  0.278402  0.285711  -0.000305  1.03561  0.0
H  H10  1  0.80186501  0.67055628  0.77905837  1  0.332052  0.001687  0.913658  0.001  0.321363  -0.00024  0.976593  0.0  0.328485  -1.1e-05  0.972082  0.0  0.281834  0.316637  -0.000596  0.979432  0.0
H  H11  1  0.25162270  0.82948273  0.72088228  1  0.333312  0.001355  0.911769  0.001  0.322586  -0.00033  0.974566  0.0  0.329634  -7.1e-05  0.970123  0.0  0.281908  0.317621  -0.000593  0.9778  0.0
H  H12  1  0.19809499  0.32944616  0.22093008  1  0.332153  0.001685  0.913405  0.001  0.321395  -0.00024  0.976447  0.0  0.328519  -1e-05  0.971931  0.0  0.281818  0.316668  -0.000596  0.979291  0.0
H  H13  1  0.74837710  0.17050310  0.27913423  1  0.333259  0.00135  0.911752  0.001  0.322491  -0.000331  0.974614  0.0  0.32954  -7.1e-05  0.97017  0.0  0.281854  0.317528  -0.000594  0.977848  0.0
H  H14  1  0.03901853  0.25022701  0.75008167  1  0.10918  0.000552  0.9454  0.0  0.119804  0.000373  1.002164  0.0  0.121244  0.000294  1.000728  0.0  0.151255  0.11838  0.000429  1.003731  0.0
H  H15  1  0.96098671  0.74983483  0.24986810  1  0.109164  0.000554  0.945488  0.0  0.119726  0.000373  1.002273  0.0  0.121127  0.000294  1.000957  0.0  0.151287  0.11831  0.000429  1.003823  0.0
C  C16  1  0.22988968  0.25021200  0.75004407  1  0.181031  0.011517  3.707785  0.005  0.136075  0.003576  3.975037  -0.001  0.149496  0.006154  3.992445  0.002  0.150882  0.127416  0.001814  3.963776  -0.002
C  C17  1  0.77012209  0.74980857  0.24993428  1  0.180988  0.011499  3.707878  0.005  0.136127  0.003571  3.975257  -0.001  0.149534  0.006167  3.992645  0.002  0.150818  0.127477  0.001816  3.963978  -0.002
N  N18  1  0.27410525  0.34451289  0.83911666  1  -0.265315  -0.06427  3.233206  -0.084  -0.222239  -0.051665  3.536696  -0.072  -0.249083  -0.042816  3.554609  -0.064  -0.255583  -0.206198  -0.056983  3.526359  -0.075
N  N19  1  0.45740941  0.15579534  0.66092554  1  -0.266708  -0.065236  3.236987  -0.086  -0.224038  -0.051762  3.540583  -0.072  -0.250951  -0.042805  3.558465  -0.064  -0.255304  -0.208005  -0.056933  3.529973  -0.075
N  N20  1  0.72589623  0.65549446  0.16087362  1  -0.265345  -0.064269  3.233274  -0.084  -0.222356  -0.05167  3.53682  -0.072  -0.249199  -0.042819  3.554727  -0.064  -0.25566  -0.206317  -0.056989  3.526494  -0.075
N  N21  1  0.54262622  0.84418069  0.33907866  1  -0.266629  -0.065233  3.237155  -0.086  -0.224018  -0.051762  3.54076  -0.072  -0.250925  -0.042803  3.558631  -0.064  -0.255249  -0.207985  -0.056931  3.530155  -0.075
N  N22  1  0.53690461  0.30623308  0.80362327  1  -0.078917  -0.001867  2.964909  -0.004  -0.05518  -0.003069  3.241939  -0.005  -0.054139  -0.000868  3.254931  -0.002  -0.083112  -0.055567  -0.004825  3.23342  -0.007
N  N23  1  0.64658931  0.19392109  0.69637004  1  -0.078389  -0.001483  2.965199  -0.004  -0.053647  -0.002995  3.241659  -0.005  -0.052481  -0.000815  3.254635  -0.002  -0.083574  -0.05391  -0.004814  3.233237  -0.006
N  N24  1  0.46310952  0.69372146  0.19640120  1  -0.078635  -0.001871  2.964987  -0.004  -0.05488  -0.003068  3.242072  -0.005  -0.05383  -0.000873  3.255053  -0.002  -0.083005  -0.055271  -0.004826  3.233554  -0.007
N  N25  1  0.35344641  0.80601202  0.30366270  1  -0.078626  -0.001466  2.965538  -0.004  -0.05384  -0.002992  3.241989  -0.005  -0.05267  -0.00082  3.254957  -0.002  -0.083637  -0.054096  -0.004815  3.233559  -0.006
N  N26  1  0.72842443  0.62120526  0.88017462  1  -0.839052  -0.09188  2.98771  -0.116  -0.840222  -0.062539  3.238902  -0.082  -0.873983  -0.049239  3.227123  -0.07  -0.794554  -0.81913  -0.07034  3.247794  -0.087
N  N27  1  0.22991816  0.87885619  0.61975346  1  -0.841122  -0.091343  2.986796  -0.115  -0.842452  -0.062215  3.238446  -0.081  -0.876248  -0.048963  3.226665  -0.069  -0.794272  -0.821229  -0.070264  3.247582  -0.087
N  N28  1  0.27156131  0.37881356  0.11982349  1  -0.839282  -0.091879  2.987562  -0.116  -0.840361  -0.06254  3.23903  -0.082  -0.874119  -0.049238  3.227236  -0.07  -0.794605  -0.819268  -0.070339  3.247929  -0.087
N  N29  1  0.77014111  0.12110667  0.38025252  1  -0.841193  -0.091346  2.986514  -0.115  -0.84226  -0.06222  3.238231  -0.081  -0.876076  -0.048968  3.226396  -0.069  -0.794313  -0.82101  -0.07027  3.247415  -0.087
N  N30  1  0.00000071  0.00000792  0.99999363  1  0.378885  0.011584  4.306318  0.011  0.414475  0.001399  4.622525  0.001  0.429992  0.001336  4.652956  0.001  0.057393  0.404198  0.001753  4.600317  0.002
N  N31  1  0.99988881  0.50005177  0.50001347  1  0.376902  0.013914  4.302447  0.013  0.412788  0.002143  4.621532  0.002  0.42836  0.001935  4.652276  0.002  0.056734  0.402689  0.00175  4.599899  0.002
N  N32  1  0.12922257  0.84701030  0.93582685  1  -0.529211  -0.020899  2.545674  -0.028  -0.540937  -0.001474  2.829297  -0.004  -0.555764  0.000483  2.835622  -0.001  -0.264892  -0.529342  -0.0045  2.824227  -0.007
N  N33  1  0.91210674  0.65305506  0.56413569  1  -0.524351  -0.024374  2.543557  -0.032  -0.538836  -0.001947  2.828931  -0.004  -0.554094  0.000265  2.835666  -0.002  -0.264197  -0.528038  -0.004495  2.824065  -0.007
N  N34  1  0.87078846  0.15299379  0.06415927  1  -0.529232  -0.020909  2.546018  -0.028  -0.540834  -0.001473  2.829585  -0.004  -0.555667  0.000478  2.835938  -0.001  -0.2648  -0.529259  -0.004499  2.824537  -0.007
N  N35  1  0.08768760  0.34702455  0.43587633  1  -0.525231  -0.024384  2.543602  -0.032  -0.539596  -0.001952  2.828908  -0.004  -0.554854  0.000273  2.835655  -0.002  -0.264566  -0.528789  -0.004502  2.824014  -0.007
