# generated using pymatgen
data_LiH3(CO)3
_symmetry_space_group_name_H-M   'P 1'
_cell_length_a   6.28683349
_cell_length_b   7.94931476
_cell_length_c   8.54852514
_cell_angle_alpha   114.05301088
_cell_angle_beta   111.54716067
_cell_angle_gamma   89.97989015
_symmetry_Int_Tables_number   1
_chemical_formula_structural   LiH3(CO)3
_chemical_formula_sum   'Li4 H12 C12 O12'
_cell_volume   357.20834769
_cell_formula_units_Z   4
loop_
 _symmetry_equiv_pos_site_id
 _symmetry_equiv_pos_as_xyz
  1  'x, y, z'
loop_
 _atom_site_type_symbol
 _atom_site_label
 _atom_site_symmetry_multiplicity
 _atom_site_fract_x
 _atom_site_fract_y
 _atom_site_fract_z
 _atom_site_occupancy
 _atom_site_hle17_bader_spin_density
 _atom_site_hle17_ddec_charge
 _atom_site_hle17_ddec_spin_density
 _atom_site_hle17_ddec_sum_bond_order
 _atom_site_hle17_magmom
 _atom_site_hse06_10hf_bader_spin_density
 _atom_site_hse06_10hf_ddec_charge
 _atom_site_hse06_10hf_ddec_spin_density
 _atom_site_hse06_10hf_ddec_sum_bond_order
 _atom_site_hse06_10hf_magmom
 _atom_site_hse06_bader_spin_density
 _atom_site_hse06_ddec_charge
 _atom_site_hse06_ddec_spin_density
 _atom_site_hse06_ddec_sum_bond_order
 _atom_site_hse06_magmom
 _atom_site_pbe_bader_spin_density
 _atom_site_pbe_cm5_charge
 _atom_site_pbe_ddec_charge
 _atom_site_pbe_ddec_spin_density
 _atom_site_pbe_ddec_sum_bond_order
 _atom_site_pbe_magmom
Li  Li0  1  0.60154622  0.55261166  0.20272101  1  0  0.857821  0  0.380565  0  0  0.818784  0  0.481532  0  0  0.828612  0  0.464596  0  0  0.500084  0.811458  0  0.493953  0
Li  Li1  1  0.39845559  0.44738883  0.79727822  1  0  0.857824  0  0.380583  0  0  0.818806  0  0.48151  0  0  0.828629  0  0.46458  0  0  0.500081  0.81148  0  0.49393  0
Li  Li2  1  0.78333902  0.43661364  0.56675895  1  0  0.849404  0  0.391453  0  0  0.812996  0  0.486861  0  0  0.822506  0  0.470512  0  0  0.506793  0.806093  0  0.49857  0
Li  Li3  1  0.21666419  0.56338545  0.43324013  1  0  0.849426  0  0.391433  0  0  0.813013  0  0.486834  0  0  0.822524  0  0.470487  0  0  0.506791  0.80611  0  0.498543  0
H  H4  1  0.66446856  0.01918396  0.32839768  1  0  0.140596  0  0.946506  0  0  0.150063  0  1.008283  0  0  0.155876  0  1.006381  0  0  0.114501  0.145907  0  1.009973  0
H  H5  1  0.33553466  0.98081513  0.67160140  1  0  0.140608  0  0.946444  0  0  0.150075  0  1.008225  0  0  0.155886  0  1.006325  0  0  0.114521  0.14592  0  1.009916  0
H  H6  1  0.98476484  0.66866046  0.97017282  1  0  0.144732  0  0.918291  0  0  0.159338  0  0.969833  0  0  0.165359  0  0.967655  0  0  0.131407  0.155095  0  0.971588  0
H  H7  1  0.01523119  0.33133722  0.02982726  1  0  0.144733  0  0.918296  0  0  0.159342  0  0.969832  0  0  0.165356  0  0.967662  0  0  0.131414  0.155097  0  0.971589  0
H  H8  1  0.35394602  0.79119292  0.34928446  1  0  0.431699  0  0.866424  0  0  0.402779  0  0.92677  0  0  0.412621  0  0.912297  0  0  0.307815  0.395842  0  0.936983  0
H  H9  1  0.00462770  0.20901531  0.65086556  1  0  0.431825  0  0.866368  0  0  0.402924  0  0.926685  0  0  0.41279  0  0.912177  0  0  0.307907  0.39598  0  0.936906  0
H  H10  1  0.64605548  0.20880617  0.65071415  1  0  0.43174  0  0.866371  0  0  0.402825  0  0.926706  0  0  0.412666  0  0.912234  0  0  0.307827  0.395885  0  0.936924  0
H  H11  1  0.99537550  0.79098378  0.34913468  1  0  0.431819  0  0.866379  0  0  0.402925  0  0.926686  0  0  0.412793  0  0.912174  0  0  0.307901  0.395981  0  0.936905  0
H  H12  1  0.56994573  0.74470093  0.48935245  1  0  0.423789  0  0.880525  0  0  0.389536  0  0.952402  0  0  0.400229  0  0.936454  0  0  0.310675  0.381893  0  0.963811  0
H  H13  1  0.08063638  0.25530094  0.51066983  1  0  0.42335  0  0.880388  0  0  0.389075  0  0.953044  0  0  0.399759  0  0.937115  0  0  0.310884  0.381443  0  0.964422  0
H  H14  1  0.43005781  0.25529956  0.51064608  1  0  0.423814  0  0.880508  0  0  0.389565  0  0.952362  0  0  0.400256  0  0.936416  0  0  0.310668  0.381922  0  0.963772  0
H  H15  1  0.91936509  0.74469815  0.48933111  1  0  0.423358  0  0.880382  0  0  0.389082  0  0.953034  0  0  0.399766  0  0.937106  0  0  0.31088  0.381452  0  0.96441  0
C  C16  1  0.58284192  0.17753153  0.16550923  1  0  0.343544  0  3.863273  0  0  0.330722  0  4.125705  0  0  0.350704  0  4.135329  0  0  0.120732  0.317565  0  4.11819  0
C  C17  1  0.41715959  0.82246756  0.83448938  1  0  0.343522  0  3.863325  0  0  0.330708  0  4.12576  0  0  0.35069  0  4.13538  0  0  0.120747  0.317551  0  4.118241  0
C  C18  1  0.59432374  0.01258740  0.18847227  1  0  -0.382589  0  3.722697  0  0  -0.411394  0  3.986115  0  0  -0.437127  0  4.010165  0  0  -0.134278  -0.394335  0  3.969681  0
C  C19  1  0.40567978  0.98741309  0.81152742  1  0  -0.38256  0  3.722723  0  0  -0.411378  0  3.986134  0  0  -0.437111  0  4.010186  0  0  -0.134309  -0.394323  0  3.969703  0
C  C20  1  0.48366872  0.16383060  0.96751459  1  0  0.364816  0  3.855348  0  0  0.354395  0  4.113644  0  0  0.375431  0  4.12272  0  0  0.127192  0.340225  0  4.107075  0
C  C21  1  0.51633309  0.83616989  0.03248463  1  0  0.364989  0  3.85519  0  0  0.354533  0  4.113516  0  0  0.375566  0  4.122604  0  0  0.127231  0.340365  0  4.106947  0
C  C22  1  0.99147300  0.81121281  0.98348899  1  0  -0.361569  0  3.72616  0  0  -0.393925  0  3.997448  0  0  -0.417108  0  4.017699  0  0  -0.121456  -0.378305  0  3.982922  0
C  C23  1  0.00852160  0.18878628  0.01651356  1  0  -0.361556  0  3.726025  0  0  -0.393858  0  3.997396  0  0  -0.417031  0  4.017642  0  0  -0.121476  -0.378244  0  3.98286  0
C  C24  1  0.91891035  0.03771715  0.83740541  1  0  0.34167  0  3.840038  0  0  0.324125  0  4.105462  0  0  0.346071  0  4.113696  0  0  0.122144  0.309492  0  4.098924  0
C  C25  1  0.08108394  0.96228053  0.16259652  1  0  0.341663  0  3.840051  0  0  0.324207  0  4.105429  0  0  0.346159  0  4.113659  0  0  0.122134  0.309551  0  4.098931  0
C  C26  1  0.91071433  0.83923066  0.82166522  1  0  0.348371  0  3.825475  0  0  0.330863  0  4.091927  0  0  0.352193  0  4.099224  0  0  0.125933  0.316992  0  4.085522  0
C  C27  1  0.08928340  0.16076702  0.17833533  1  0  0.348542  0  3.825146  0  0  0.330871  0  4.091788  0  0  0.352202  0  4.099084  0  0  0.125974  0.317005  0  4.08539  0
O  O28  1  0.64925278  0.34286475  0.29808252  1  0  -0.651372  0  2.014355  0  0  -0.610523  0  2.253408  0  0  -0.629553  0  2.246546  0  0  -0.388744  -0.597192  0  2.257622  0
O  O29  1  0.35074731  0.65713574  0.70191740  1  0  -0.651375  0  2.014424  0  0  -0.61053  0  2.253478  0  0  -0.629557  0  2.246613  0  0  -0.38874  -0.597199  0  2.257689  0
O  O30  1  0.47875046  0.31879551  0.95811394  1  0  -0.657014  0  2.057424  0  0  -0.61199  0  2.289901  0  0  -0.630208  0  2.282393  0  0  -0.399257  -0.599863  0  2.295184  0
O  O31  1  0.52125135  0.68120498  0.04188529  1  0  -0.657108  0  2.057392  0  0  -0.612065  0  2.289871  0  0  -0.630286  0  2.282365  0  0  -0.399302  -0.599939  0  2.295152  0
O  O32  1  0.82775087  0.70567776  0.65575465  1  0  -0.622578  0  2.057946  0  0  -0.559921  0  2.279877  0  0  -0.58061  0  2.271398  0  0  -0.338625  -0.545429  0  2.285128  0
O  O33  1  0.17224749  0.29432273  0.34424596  1  0  -0.622674  0  2.057762  0  0  -0.55994  0  2.279736  0  0  -0.58065  0  2.271275  0  0  -0.338646  -0.545447  0  2.284987  0
O  O34  1  0.84242679  0.05318217  0.68400945  1  0  -0.571664  0  2.021273  0  0  -0.50453  0  2.227266  0  0  -0.52572  0  2.220502  0  0  -0.289024  -0.489824  0  2.231529  0
O  O35  1  0.15757124  0.94681691  0.31599288  1  0  -0.571659  0  2.021246  0  0  -0.504569  0  2.227245  0  0  -0.525749  0  2.220459  0  0  -0.289043  -0.489858  0  2.231524  0
O  O36  1  0.42879050  0.68822443  0.37097504  1  0  -0.92744  0  1.833432  0  0  -0.88674  0  2.01637  0  0  -0.900968  0  1.981881  0  0  -0.656831  -0.87661  0  2.040479  0
O  O37  1  0.05766981  0.31192299  0.62903824  1  0  -0.927506  0  1.83226  0  0  -0.886703  0  2.015337  0  0  -0.900973  0  1.98089  0  0  -0.657843  -0.876544  0  2.039454  0
O  O38  1  0.57121303  0.31177606  0.62902349  1  0  -0.92749  0  1.833403  0  0  -0.886799  0  2.016312  0  0  -0.901029  0  1.981836  0  0  -0.656831  -0.876667  0  2.040424  0
O  O39  1  0.94233510  0.68807609  0.37096247  1  0  -0.927501  0  1.832221  0  0  -0.886685  0  2.015281  0  0  -0.900962  0  1.980832  0  0  -0.657831  -0.876528  0  2.039397  0
