# generated using pymatgen
data_KH7(C2O3)2
_symmetry_space_group_name_H-M   'P 1'
_cell_length_a   7.46159596
_cell_length_b   7.46158152
_cell_length_c   7.61602049
_cell_angle_alpha   67.81770262
_cell_angle_beta   67.81780610
_cell_angle_gamma   89.19177500
_symmetry_Int_Tables_number   1
_chemical_formula_structural   KH7(C2O3)2
_chemical_formula_sum   'K2 H14 C8 O12'
_cell_volume   359.47872712
_cell_formula_units_Z   2
loop_
 _symmetry_equiv_pos_site_id
 _symmetry_equiv_pos_as_xyz
  1  'x, y, z'
loop_
 _atom_site_type_symbol
 _atom_site_label
 _atom_site_symmetry_multiplicity
 _atom_site_fract_x
 _atom_site_fract_y
 _atom_site_fract_z
 _atom_site_occupancy
 _atom_site_hle17_bader_spin_density
 _atom_site_hle17_ddec_charge
 _atom_site_hle17_ddec_spin_density
 _atom_site_hle17_ddec_sum_bond_order
 _atom_site_hle17_magmom
 _atom_site_hse06_10hf_bader_spin_density
 _atom_site_hse06_10hf_ddec_charge
 _atom_site_hse06_10hf_ddec_spin_density
 _atom_site_hse06_10hf_ddec_sum_bond_order
 _atom_site_hse06_10hf_magmom
 _atom_site_hse06_bader_spin_density
 _atom_site_hse06_ddec_charge
 _atom_site_hse06_ddec_spin_density
 _atom_site_hse06_ddec_sum_bond_order
 _atom_site_hse06_magmom
 _atom_site_pbe_bader_spin_density
 _atom_site_pbe_cm5_charge
 _atom_site_pbe_ddec_charge
 _atom_site_pbe_ddec_spin_density
 _atom_site_pbe_ddec_sum_bond_order
 _atom_site_pbe_magmom
K  K0  1  0.06506185  0.94528960  0.48905052  1  0  0.923303  0  0.467586  0  0  0.87154  0  0.659549  0  0  0.887525  0  0.635305  0  0  0.781304  0.859702  0  0.676669  0
K  K1  1  0.94528998  0.06506993  0.98905013  1  0  0.923295  0  0.467607  0  0  0.87155  0  0.659536  0  0  0.88751  0  0.635337  0  0  0.781316  0.859714  0  0.676659  0
H  H2  1  0.34615973  0.23576656  0.72439860  1  0  0.384191  0  0.923366  0  0  0.357861  0  0.992421  0  0  0.368632  0  0.97681  0  0  0.291437  0.350296  0  1.003233  0
H  H3  1  0.23576533  0.34616001  0.22439926  1  0  0.384257  0  0.92332  0  0  0.357927  0  0.992343  0  0  0.368697  0  0.976734  0  0  0.291463  0.350359  0  1.00318  0
H  H4  1  0.50484781  0.84528779  0.24289606  1  0  0.398509  0  0.899829  0  0  0.362609  0  0.986081  0  0  0.376869  0  0.970148  0  0  0.296726  0.352654  0  0.996149  0
H  H5  1  0.84528872  0.50484974  0.74289481  1  0  0.398417  0  0.899917  0  0  0.362519  0  0.98617  0  0  0.376779  0  0.970269  0  0  0.296701  0.352565  0  0.996233  0
H  H6  1  0.54500648  0.31499482  0.16757017  1  0  0.422554  0  0.878696  0  0  0.390805  0  0.943453  0  0  0.401315  0  0.92813  0  0  0.29271  0.383329  0  0.954348  0
H  H7  1  0.31499741  0.54500513  0.66756924  1  0  0.422548  0  0.878699  0  0  0.390797  0  0.943461  0  0  0.401306  0  0.928139  0  0  0.292717  0.383322  0  0.954355  0
H  H8  1  0.41780615  0.21828544  0.41456033  1  0  0.411755  0  0.89499  0  0  0.380169  0  0.960938  0  0  0.390394  0  0.945898  0  0  0.292249  0.372928  0  0.971558  0
H  H9  1  0.21828757  0.41780435  0.91456106  1  0  0.411654  0  0.895117  0  0  0.380089  0  0.961029  0  0  0.390313  0  0.945989  0  0  0.292205  0.372851  0  0.971643  0
H  H10  1  0.57158067  0.71329172  0.81563274  1  0  0.130355  0  0.929575  0  0  0.142534  0  0.98906  0  0  0.14533  0  0.987903  0  0  0.112897  0.140513  0  0.990004  0
H  H11  1  0.71329084  0.57157812  0.31563048  1  0  0.130363  0  0.929562  0  0  0.142539  0  0.989077  0  0  0.145337  0  0.987917  0  0  0.112897  0.140517  0  0.990025  0
H  H12  1  0.33003737  0.74037183  0.82467988  1  0  0.113749  0  0.950917  0  0  0.123893  0  1.018055  0  0  0.126813  0  1.016388  0  0  0.108167  0.121747  0  1.019427  0
H  H13  1  0.74037414  0.33003536  0.32467641  1  0  0.113763  0  0.950902  0  0  0.123921  0  1.018039  0  0  0.126844  0  1.016366  0  0  0.10818  0.121775  0  1.01941  0
H  H14  1  0.64586219  0.07678886  0.69513759  1  0  0.056811  0  0.946763  0  0  0.062134  0  1.014619  0  0  0.064572  0  1.012761  0  0  0.11281  0.060311  0  1.016192  0
H  H15  1  0.07678803  0.64586260  0.19513522  1  0  0.056803  0  0.946749  0  0  0.062124  0  1.014612  0  0  0.064564  0  1.012752  0  0  0.11281  0.060299  0  1.016189  0
C  C16  1  0.56192985  0.84812568  0.51629095  1  0  0.732753  0  3.817663  0  0  0.685167  0  4.123466  0  0  0.718839  0  4.114038  0  0  0.216482  0.66226  0  4.129163  0
C  C17  1  0.84812511  0.56192952  0.01629047  1  0  0.732782  0  3.817661  0  0  0.68522  0  4.123472  0  0  0.718892  0  4.114045  0  0  0.216507  0.662309  0  4.129173  0
C  C18  1  0.48335290  0.81083402  0.74510981  1  0  -0.329389  0  3.636575  0  0  -0.371154  0  3.8817  0  0  -0.377417  0  3.886794  0  0  -0.163078  -0.36682  0  3.878288  0
C  C19  1  0.81083331  0.48334984  0.24510908  1  0  -0.329389  0  3.636488  0  0  -0.371228  0  3.881741  0  0  -0.377496  0  3.88684  0  0  -0.163098  -0.36689  0  3.878326  0
C  C20  1  0.49319825  0.00311754  0.77196800  1  0  0.135865  0  3.657981  0  0  0.111606  0  3.90812  0  0  0.114086  0  3.914968  0  0  0.002516  0.109786  0  3.903467  0
C  C21  1  0.00311731  0.49319751  0.27196717  1  0  0.135951  0  3.657891  0  0  0.111713  0  3.908056  0  0  0.114193  0  3.914903  0  0  0.002508  0.109895  0  3.903401  0
C  C22  1  0.42114897  0.95163631  0.00401566  1  0  0.663195  0  3.757704  0  0  0.620363  0  4.053085  0  0  0.65259  0  4.043559  0  0  0.237774  0.598279  0  4.059214  0
C  C23  1  0.95163547  0.42114818  0.50401614  1  0  0.662932  0  3.75792  0  0  0.620064  0  4.053375  0  0  0.652295  0  4.043849  0  0  0.237643  0.597983  0  4.059502  0
O  O24  1  0.44924628  0.76956331  0.46112417  1  0  -0.676456  0  1.995119  0  0  -0.610001  0  2.214129  0  0  -0.636722  0  2.201454  0  0  -0.336643  -0.59123  0  2.221978  0
O  O25  1  0.76956676  0.44924532  0.96112042  1  0  -0.67648  0  1.995165  0  0  -0.610026  0  2.214167  0  0  -0.636746  0  2.201505  0  0  -0.336674  -0.591252  0  2.222015  0
O  O26  1  0.72566060  0.95007118  0.39571796  1  0  -0.694625  0  1.921382  0  0  -0.653127  0  2.166303  0  0  -0.676581  0  2.155717  0  0  -0.436775  -0.636722  0  2.173133  0
O  O27  1  0.95007054  0.72566172  0.89571752  1  0  -0.694626  0  1.92137  0  0  -0.653119  0  2.16628  0  0  -0.676573  0  2.155698  0  0  -0.436764  -0.636713  0  2.173114  0
O  O28  1  0.37214201  0.12037430  0.68334421  1  0  -0.600074  0  2.114879  0  0  -0.543698  0  2.331564  0  0  -0.561156  0  2.317675  0  0  -0.410215  -0.531205  0  2.34077  0
O  O29  1  0.12037411  0.37214006  0.18334524  1  0  -0.600146  0  2.114818  0  0  -0.54377  0  2.33148  0  0  -0.561224  0  2.31758  0  0  -0.410243  -0.531275  0  2.340701  0
O  O30  1  0.24864954  0.95275935  0.11095377  1  0  -0.64068  0  1.9886  0  0  -0.601162  0  2.225711  0  0  -0.62237  0  2.215396  0  0  -0.43233  -0.58654  0  2.232595  0
O  O31  1  0.95275797  0.24864925  0.61095566  1  0  -0.640496  0  1.988639  0  0  -0.600955  0  2.22576  0  0  -0.622167  0  2.215452  0  0  -0.432218  -0.586336  0  2.232646  0
O  O32  1  0.55737378  0.89882638  0.07588427  1  0  -0.584225  0  2.111647  0  0  -0.534704  0  2.341747  0  0  -0.558977  0  2.327041  0  0  -0.35599  -0.517826  0  2.35076  0
O  O33  1  0.89882341  0.55737401  0.57588243  1  0  -0.584091  0  2.111722  0  0  -0.534553  0  2.341824  0  0  -0.558828  0  2.32714  0  0  -0.35594  -0.517674  0  2.350829  0
O  O34  1  0.41184446  0.25670754  0.27747397  1  0  -0.847617  0  1.867758  0  0  -0.794873  0  2.030726  0  0  -0.813772  0  2.000076  0  0  -0.610035  -0.781501  0  2.052179  0
O  O35  1  0.25670747  0.41184284  0.77747151  1  0  -0.847509  0  1.867853  0  0  -0.794773  0  2.030815  0  0  -0.813667  0  2.000171  0  0  -0.610014  -0.781409  0  2.052254  0
