# generated using pymatgen
data_CoH4C6(NO)4
_symmetry_space_group_name_H-M   'P 1'
_cell_length_a   6.85424301
_cell_length_b   7.46532628
_cell_length_c   9.14177700
_cell_angle_alpha   113.00615945
_cell_angle_beta   109.87192804
_cell_angle_gamma   90.25766343
_symmetry_Int_Tables_number   1
_chemical_formula_structural   CoH4C6(NO)4
_chemical_formula_sum   'Co2 H8 C12 N8 O8'
_cell_volume   399.80353617
_cell_formula_units_Z   2
loop_
 _symmetry_equiv_pos_site_id
 _symmetry_equiv_pos_as_xyz
  1  'x, y, z'
loop_
 _atom_site_type_symbol
 _atom_site_label
 _atom_site_symmetry_multiplicity
 _atom_site_fract_x
 _atom_site_fract_y
 _atom_site_fract_z
 _atom_site_occupancy
 _atom_site_hse06_10hf_ddec_charge
 _atom_site_hse06_10hf_ddec_spin_density
 _atom_site_hse06_10hf_ddec_sum_bond_order
 _atom_site_hse06_10hf_magmom
 _atom_site_hse06_ddec_charge
 _atom_site_hse06_ddec_spin_density
 _atom_site_hse06_ddec_sum_bond_order
 _atom_site_hse06_magmom
 _atom_site_pbe_cm5_charge
 _atom_site_pbe_ddec_charge
 _atom_site_pbe_ddec_spin_density
 _atom_site_pbe_ddec_sum_bond_order
 _atom_site_pbe_magmom
Co  Co0  1  0.25497604  0.67758325  0.35601121  1  0.941467  -1.02187  2.883137  -0.952  0.996334  -1.00752  2.805815  -0.95  0.692  0.912002  -1.032337  2.930537  -0.95
Co  Co1  1  0.74161633  0.32514954  0.63990712  1  1.097638  -2.864075  2.559127  -2.665  1.153374  -2.900341  2.487463  -2.729  0.730665  1.052168  -2.82343  2.612051  -2.596
H  H2  1  0.63397327  0.61427849  0.44174885  1  0.403751  0.000411  0.921013  0.0  0.414572  0.00043  0.9057  0.0  0.303067  0.396164  0.000318  0.931709  0.0
H  H3  1  0.63409827  0.83603261  0.44631419  1  0.403161  -0.000128  0.923558  0.0  0.413892  -5e-05  0.908553  0.0  0.30223  0.39562  -0.000241  0.934052  0.0
H  H4  1  0.34399869  0.38915414  0.54274929  1  0.40078  -0.000334  0.930191  -0.001  0.411746  -0.000112  0.914673  0.0  0.297372  0.392996  -0.000585  0.941063  -0.001
H  H5  1  0.34239032  0.17208542  0.54891965  1  0.403144  -0.000414  0.930192  -0.001  0.414053  -0.000125  0.91474  0.0  0.294362  0.395337  -0.000716  0.941086  -0.001
H  H6  1  0.87385289  0.50792605  0.23427371  1  0.358206  0.000374  0.994904  0.0  0.368946  0.000353  0.980051  0.0  0.289875  0.350833  0.000315  1.005009  0.0
H  H7  1  0.87154993  0.73290325  0.23896343  1  0.356351  -0.000129  0.998795  0.0  0.367023  -0.000103  0.984146  0.0  0.288995  0.34901  -0.000177  1.008776  0.0
H  H8  1  0.14575497  0.49484106  0.76590213  1  0.359936  -0.000633  0.997202  -0.001  0.370965  -0.00036  0.981875  -0.001  0.283908  0.352019  -0.000918  1.007986  -0.002
H  H9  1  0.14241915  0.27578807  0.77295975  1  0.362446  -0.000635  0.992998  -0.001  0.373264  -0.000362  0.977992  -0.001  0.28457  0.354677  -0.000893  1.003543  -0.001
C  C10  1  0.25378999  0.74778579  0.67897489  1  0.369836  0.000792  4.10242  -0.001  0.394894  0.000421  4.105664  -0.001  0.225093  0.352056  0.001392  4.100647  -0.001
C  C11  1  0.25176561  0.94706394  0.68269641  1  0.381914  0.001692  4.152122  0.001  0.406054  0.001157  4.15319  0.001  0.224661  0.365235  0.002259  4.151447  0.002
C  C12  1  0.74922379  0.25908187  0.31698927  1  0.378263  0.002483  4.136037  0.001  0.401421  0.002011  4.139605  0.001  0.224851  0.361718  0.003375  4.133307  0.002
C  C13  1  0.74831674  0.06155527  0.32015252  1  0.375072  0.002975  4.137569  0.002  0.398211  0.002339  4.141423  0.001  0.223534  0.358891  0.003033  4.134504  0.002
C  C14  1  0.25021303  0.87395343  0.95543392  1  0.060597  0.003654  4.199963  0.0  0.059337  0.002543  4.218623  0.0  0.102903  0.061028  0.005861  4.188305  0.001
C  C15  1  0.24887767  0.06372380  0.95913050  1  0.073211  0.001951  4.208939  -0.001  0.077289  0.000366  4.227897  -0.002  0.106021  0.070149  0.003879  4.197095  0.0
C  C16  1  0.75860629  0.11573158  0.04480957  1  0.068522  0.001488  4.231044  -0.002  0.068501  0.000744  4.253676  -0.002  0.109002  0.069264  0.002477  4.215436  -0.002
C  C17  1  0.75866162  0.92984113  0.04755569  1  0.066517  0.002003  4.21945  -0.001  0.066657  0.001149  4.242388  -0.001  0.108925  0.067043  0.002644  4.203865  -0.002
C  C18  1  0.25095090  0.82804660  0.09294618  1  0.272904  0.026947  3.937283  0.015  0.29856  0.021602  3.939234  0.012  0.199963  0.254865  0.029854  3.938355  0.016
C  C19  1  0.24975942  0.23612160  0.10077611  1  0.262438  0.007218  3.970343  -0.002  0.279105  0.007585  3.977574  0.0  0.198366  0.250207  0.00721  3.968316  -0.003
C  C20  1  0.75183497  0.14930853  0.90153814  1  0.287776  0.022724  3.980443  0.009  0.306615  0.019201  3.988268  0.007  0.210058  0.272168  0.026627  3.978436  0.01
C  C21  1  0.75292630  0.75561160  0.90646400  1  0.285347  0.021017  3.974715  0.008  0.303047  0.017852  3.983693  0.007  0.208232  0.270559  0.025096  3.971843  0.009
N  N22  1  0.25172801  0.71772460  0.81305251  1  -0.362667  0.002872  3.37626  0.002  -0.380669  0.002465  3.387908  0.002  -0.313949  -0.350209  0.003018  3.368671  0.002
N  N23  1  0.24851287  0.09743133  0.82285223  1  -0.372757  0.000393  3.370463  -0.001  -0.391776  0.000586  3.381816  0.0  -0.316729  -0.359892  0.000394  3.363029  -0.001
N  N24  1  0.75918544  0.27964158  0.18077032  1  -0.363193  -0.001426  3.372612  -0.003  -0.382028  -0.000837  3.385271  -0.002  -0.312342  -0.349765  -0.002393  3.363693  -0.004
N  N25  1  0.75847001  0.90517371  0.18733891  1  -0.364399  -0.001493  3.379078  -0.003  -0.383649  -0.000854  3.392027  -0.002  -0.314185  -0.351053  -0.002252  3.370191  -0.004
N  N26  1  0.25087876  0.76945252  0.19487472  1  -0.362581  0.001024  3.396847  -0.004  -0.371092  -0.000857  3.383021  -0.005  -0.34253  -0.360753  0.002479  3.407645  -0.002
N  N27  1  0.25042224  0.38919184  0.20606373  1  -0.351345  -0.024834  3.189622  -0.039  -0.35596  -0.022707  3.182607  -0.036  -0.305007  -0.351987  -0.027091  3.197033  -0.042
N  N28  1  0.74366472  0.19987180  0.79427735  1  -0.371609  -0.023349  3.250354  -0.039  -0.380624  -0.022103  3.242647  -0.036  -0.317183  -0.366984  -0.024198  3.259256  -0.041
N  N29  1  0.74631386  0.60372989  0.79768824  1  -0.374003  -0.022177  3.212013  -0.038  -0.382577  -0.020913  3.205218  -0.035  -0.309934  -0.369663  -0.023177  3.219994  -0.039
O  O30  1  0.25868189  0.60470945  0.54355960  1  -0.456086  0.00148  2.392192  0.0  -0.493901  0.001345  2.389129  0.0  -0.272598  -0.430267  0.000419  2.393582  -0.002
O  O31  1  0.25377909  0.96952638  0.55192557  1  -0.483808  -0.026635  2.320662  -0.046  -0.511859  -0.021051  2.313411  -0.038  -0.276767  -0.463934  -0.032961  2.324942  -0.056
O  O32  1  0.73976712  0.40677430  0.44537030  1  -0.505186  -0.026798  2.365934  -0.047  -0.535994  -0.020508  2.358881  -0.037  -0.283933  -0.481496  -0.033735  2.369836  -0.058
O  O33  1  0.73667330  0.04511198  0.45118509  1  -0.499677  -0.027449  2.358365  -0.049  -0.530835  -0.020918  2.352393  -0.038  -0.279439  -0.475976  -0.034521  2.361315  -0.06
O  O34  1  0.56216404  0.73296058  0.46357097  1  -0.744925  0.009089  2.229418  0.007  -0.782032  0.007812  2.199707  0.006  -0.549236  -0.718367  0.008081  2.248637  0.006
O  O35  1  0.41941495  0.27459254  0.53472732  1  -0.815777  -0.037165  2.168453  -0.062  -0.848741  -0.0281  2.136174  -0.048  -0.57886  -0.788321  -0.046267  2.189696  -0.075
O  O36  1  0.95359956  0.64681669  0.29244189  1  -0.737165  0.009869  2.34592  0.008  -0.773904  0.008295  2.315887  0.007  -0.556091  -0.710962  0.009146  2.364929  0.008
O  O37  1  0.05718566  0.36372750  0.72508190  1  -0.804099  -0.040912  2.269278  -0.068  -0.838218  -0.030435  2.237289  -0.052  -0.579869  -0.774381  -0.051987  2.289643  -0.085
