# generated using pymatgen
data_CuH12C14(NO3)2
_symmetry_space_group_name_H-M   'P 1'
_cell_length_a   7.02587993
_cell_length_b   7.38315755
_cell_length_c   7.43679207
_cell_angle_alpha   93.61130833
_cell_angle_beta   107.38510990
_cell_angle_gamma   110.62148874
_symmetry_Int_Tables_number   1
_chemical_formula_structural   CuH12C14(NO3)2
_chemical_formula_sum   'Cu1 H12 C14 N2 O6'
_cell_volume   338.39291375
_cell_formula_units_Z   1
loop_
 _symmetry_equiv_pos_site_id
 _symmetry_equiv_pos_as_xyz
  1  'x, y, z'
loop_
 _atom_site_type_symbol
 _atom_site_label
 _atom_site_symmetry_multiplicity
 _atom_site_fract_x
 _atom_site_fract_y
 _atom_site_fract_z
 _atom_site_occupancy
 _atom_site_hle17_ddec_charge
 _atom_site_hle17_ddec_spin_density
 _atom_site_hle17_ddec_sum_bond_order
 _atom_site_hle17_magmom
 _atom_site_hse06_10hf_ddec_charge
 _atom_site_hse06_10hf_ddec_spin_density
 _atom_site_hse06_10hf_ddec_sum_bond_order
 _atom_site_hse06_10hf_magmom
 _atom_site_hse06_ddec_charge
 _atom_site_hse06_ddec_spin_density
 _atom_site_hse06_ddec_sum_bond_order
 _atom_site_hse06_magmom
 _atom_site_pbe_cm5_charge
 _atom_site_pbe_ddec_charge
 _atom_site_pbe_ddec_spin_density
 _atom_site_pbe_ddec_sum_bond_order
 _atom_site_pbe_magmom
Cu  Cu0  1  0.99998549  0.50000649  0.00000714  1  0.936772  0.672496  1.655637  0.497  0.935429  0.769951  2.03639  0.618  1.043941  0.835225  1.944172  0.704  0.70038  0.869402  0.72568  2.097209  0.564
H  H1  1  0.75409367  0.82872245  0.11040778  1  0.124499  0.000739  0.951569  0.001  0.133293  0.000691  1.017869  0.001  0.136099  0.00044  1.016602  0.0  0.118139  0.131265  0.000912  1.01878  0.001
H  H2  1  0.24589223  0.17124080  0.88961098  1  0.124287  0.000725  0.951407  0.001  0.133118  0.000692  1.017708  0.001  0.135897  0.00044  1.016425  0.0  0.118053  0.131141  0.000912  1.018584  0.001
H  H3  1  0.68487614  0.02064095  0.19387345  1  0.127344  -0.000455  0.943787  0.0  0.139186  -0.000187  1.004725  0.0  0.141745  -0.000178  1.003734  0.0  0.120216  0.137315  -0.000185  1.005574  0.0
H  H4  1  0.31515833  0.97933626  0.80611459  1  0.127289  -0.000477  0.943775  0.0  0.139175  -0.000187  1.004695  0.0  0.141707  -0.000178  1.003686  0.0  0.120203  0.137309  -0.000185  1.005564  0.0
H  H5  1  0.69558216  0.07408867  0.50253745  1  0.100373  0.000473  0.931486  0.001  0.110841  0.000354  0.993589  0.0  0.11327  0.000226  0.991196  0.0  0.127904  0.109019  0.00047  0.995387  0.0
H  H6  1  0.30437426  0.92588186  0.49746212  1  0.100378  0.000468  0.93141  0.001  0.110861  0.000354  0.993502  0.0  0.11329  0.000226  0.991112  0.0  0.127942  0.109039  0.00047  0.995295  0.0
H  H7  1  0.75121325  0.56799414  0.28301684  1  0.111203  -6.8e-05  0.968805  0.0  0.116875  -0.000195  1.037254  0.0  0.119926  -0.000206  1.033511  0.0  0.124566  0.11449  -0.00017  1.040128  0.0
H  H8  1  0.24878381  0.43197308  0.71697716  1  0.111232  -7e-05  0.968952  0.0  0.1168  -0.000195  1.037527  0.0  0.119848  -0.000206  1.033787  0.0  0.124581  0.114414  -0.000171  1.040402  0.0
H  H9  1  0.86711207  0.48906778  0.60556504  1  0.125516  -0.000272  0.95867  0.0  0.132596  -0.000313  1.024478  0.0  0.135725  -0.000371  1.023468  0.0  0.110128  0.130158  -0.00024  1.025831  0.0
H  H10  1  0.13289831  0.51094830  0.39444985  1  0.125512  -0.000273  0.958579  0.0  0.132625  -0.000314  1.024344  0.0  0.135707  -0.000371  1.023387  0.0  0.11019  0.130186  -0.000241  1.025699  0.0
H  H11  1  0.80309405  0.01216025  0.83442737  1  0.142298  -0.000369  0.96073  0.0  0.149662  -8e-05  1.020012  0.0  0.154298  -0.000103  1.018033  0.0  0.112367  0.146396  -3.6e-05  1.02149  0.0
H  H12  1  0.19683980  0.98782356  0.16556341  1  0.142443  -0.000371  0.960724  0.0  0.149733  -8e-05  1.020033  0.0  0.154361  -0.000103  1.018066  0.0  0.11244  0.14647  -3.6e-05  1.021513  0.0
C  C13  1  0.41623164  0.74293177  0.07140341  1  0.670594  -0.007634  3.867785  -0.007  0.629151  -0.002736  4.175955  -0.003  0.664735  -0.003215  4.170594  -0.003  0.202421  0.605064  -0.00212  4.179239  -0.003
C  C14  1  0.58376684  0.25707668  0.92858878  1  0.670657  -0.007635  3.86797  -0.007  0.629145  -0.002736  4.176234  -0.003  0.664691  -0.003217  4.170873  -0.003  0.202447  0.605072  -0.002121  4.17952  -0.003
C  C15  1  0.65594828  0.86352653  0.18680965  1  -0.1853  0.008611  3.591723  0.01  -0.243866  0.005459  3.832644  0.006  -0.246382  0.003742  3.83925  0.004  -0.059951  -0.242094  0.006782  3.828293  0.007
C  C16  1  0.34407378  0.13647458  0.81319459  1  -0.18514  0.008648  3.591857  0.01  -0.243774  0.005456  3.832828  0.006  -0.24613  0.003739  3.839218  0.004  -0.059802  -0.24209  0.006778  3.828539  0.007
C  C17  1  0.73385223  0.94647122  0.53409286  1  0.088052  -0.00145  3.669073  0.0  0.041092  0.000182  3.932148  0.001  0.052818  -6.6e-05  3.945945  0.0  0.046055  0.033522  0.000392  3.922871  0.001
C  C18  1  0.26613811  0.05353851  0.46588218  1  0.088238  -0.001441  3.669533  0.0  0.041264  0.000183  3.932498  0.001  0.052984  -6.7e-05  3.946307  0.0  0.046112  0.033696  0.000391  3.923214  0.001
C  C19  1  0.76968891  0.66350236  0.41049237  1  0.091935  -0.001746  3.646694  -0.001  0.05075  -0.000793  3.899047  0.0  0.062448  -0.000702  3.913614  0.0  0.047136  0.043407  -0.000803  3.888997  0.0
C  C20  1  0.23036044  0.33652095  0.58953036  1  0.09217  -0.001767  3.646237  -0.001  0.051025  -0.000793  3.898627  0.0  0.062735  -0.000707  3.913159  0.0  0.04722  0.043675  -0.000804  3.88859  0.0
C  C21  1  0.83185467  0.62036652  0.59000354  1  -0.245836  0.001635  3.710681  0.003  -0.268981  0.000528  3.974185  0.002  -0.283722  -0.000256  3.995148  0.001  -0.101427  -0.259715  0.001255  3.960481  0.003
C  C22  1  0.16818673  0.37965516  0.41000466  1  -0.245849  0.001637  3.710542  0.003  -0.269019  0.000522  3.974028  0.002  -0.283712  -0.000258  3.995002  0.001  -0.101456  -0.259765  0.001249  3.960364  0.003
C  C23  1  0.84719960  0.74381516  0.75380319  1  0.428657  -0.004112  3.844055  -0.005  0.416689  -0.000129  4.108708  -0.001  0.443715  -0.00066  4.118059  -0.001  0.11205  0.398828  0.00045  4.101851  -0.001
C  C24  1  0.15282264  0.25619069  0.24622284  1  0.428605  -0.004123  3.843083  -0.005  0.416633  -0.000125  4.107728  -0.001  0.443659  -0.000657  4.117077  -0.001  0.111958  0.398757  0.000451  4.100893  -0.001
C  C25  1  0.79152003  0.90948583  0.71652346  1  -0.228137  0.007618  3.671433  0.009  -0.247111  0.004607  3.930474  0.006  -0.259378  0.003057  3.945852  0.004  -0.097903  -0.239421  0.005864  3.920392  0.007
C  C26  1  0.20846512  0.09050961  0.28347901  1  -0.228436  0.007608  3.672332  0.009  -0.247322  0.0046  3.931338  0.006  -0.259581  0.003053  3.94671  0.004  -0.098014  -0.239641  0.005855  3.921275  0.007
N  N27  1  0.72380835  0.82609758  0.38199334  1  -0.019564  -0.003018  3.595653  -0.003  0.072768  -0.00153  3.807546  -0.001  0.05708  -0.001637  3.834963  -0.001  -0.23414  0.082936  -0.001423  3.788916  -0.001
N  N28  1  0.27622308  0.17390792  0.61801254  1  -0.019551  -0.002989  3.595558  -0.003  0.072771  -0.001533  3.807439  -0.001  0.057046  -0.001636  3.834823  -0.001  -0.234077  0.082952  -0.001424  3.788835  -0.001
O  O29  1  0.28999898  0.68847461  0.16995567  1  -0.618079  0.080437  2.060849  0.109  -0.586407  0.054488  2.339283  0.081  -0.630125  0.042306  2.331282  0.068  -0.330568  -0.558241  0.061596  2.344587  0.086
O  O30  1  0.70996949  0.31151892  0.83001083  1  -0.618037  0.080434  2.060766  0.109  -0.586286  0.054489  2.33911  0.081  -0.630012  0.042305  2.331144  0.068  -0.330584  -0.558131  0.061597  2.344426  0.086
O  O31  1  0.35953142  0.70882289  0.89236523  1  -0.620483  -0.000668  1.916514  0.002  -0.581949  -0.00119  2.144973  0.001  -0.607714  -0.00215  2.136755  0.0  -0.325169  -0.564137  -0.000343  2.150315  0.002
O  O32  1  0.64050499  0.29121774  0.10762752  1  -0.620535  -0.000675  1.916343  0.002  -0.58204  -0.001191  2.144921  0.001  -0.60779  -0.002152  2.136667  0.0  -0.325237  -0.564226  -0.000344  2.150259  0.002
O  O33  1  0.91108332  0.71638677  0.92836347  1  -0.561496  0.083991  2.090266  0.115  -0.532315  0.055851  2.369494  0.083  -0.576527  0.04215  2.361148  0.069  -0.322052  -0.503486  0.064746  2.374383  0.091
O  O34  1  0.08886858  0.28363790  0.07160890  1  -0.561611  0.084094  2.088792  0.115  -0.532412  0.0559  2.368049  0.083  -0.576652  0.042187  2.359713  0.069  -0.322127  -0.503568  0.064797  2.372949  0.091
