# generated using pymatgen
data_CuH4C6IN
_symmetry_space_group_name_H-M   'P 1'
_cell_length_a   4.33062547
_cell_length_b   9.29094031
_cell_length_c   9.28997716
_cell_angle_alpha   60.17224173
_cell_angle_beta   84.40699272
_cell_angle_gamma   84.39616993
_symmetry_Int_Tables_number   1
_chemical_formula_structural   CuH4C6IN
_chemical_formula_sum   'Cu2 H8 C12 I2 N2'
_cell_volume   322.20239397
_cell_formula_units_Z   2
loop_
 _symmetry_equiv_pos_site_id
 _symmetry_equiv_pos_as_xyz
  1  'x, y, z'
loop_
 _atom_site_type_symbol
 _atom_site_label
 _atom_site_symmetry_multiplicity
 _atom_site_fract_x
 _atom_site_fract_y
 _atom_site_fract_z
 _atom_site_occupancy
 _atom_site_hle17_bader_spin_density
 _atom_site_hle17_ddec_charge
 _atom_site_hle17_ddec_spin_density
 _atom_site_hle17_ddec_sum_bond_order
 _atom_site_hle17_magmom
 _atom_site_hse06_10hf_bader_spin_density
 _atom_site_hse06_10hf_ddec_charge
 _atom_site_hse06_10hf_ddec_spin_density
 _atom_site_hse06_10hf_ddec_sum_bond_order
 _atom_site_hse06_10hf_magmom
 _atom_site_hse06_bader_spin_density
 _atom_site_hse06_ddec_charge
 _atom_site_hse06_ddec_spin_density
 _atom_site_hse06_ddec_sum_bond_order
 _atom_site_hse06_magmom
 _atom_site_pbe_bader_spin_density
 _atom_site_pbe_cm5_charge
 _atom_site_pbe_ddec_charge
 _atom_site_pbe_ddec_spin_density
 _atom_site_pbe_ddec_sum_bond_order
 _atom_site_pbe_magmom
Cu  Cu0  1  0.49992154  0.13643616  0.86353742  1  0  0.319054  0  2.014571  0  0  0.232799  0  2.477537  0  0  0.244134  0  2.42388  0  0  0.308282  0.227618  0  2.511428  0
Cu  Cu1  1  0.50006415  0.86354959  0.13647255  1  0  0.319079  0  2.014577  0  0  0.232887  0  2.47742  0  0  0.244168  0  2.423851  0  0  0.30831  0.227711  0  2.511291  0
H  H2  1  0.86451690  0.10881057  0.64503327  1  0  0.091056  0  1.01875  0  0  0.097799  0  1.09353  0  0  0.103358  0  1.088305  0  0  0.079065  0.093571  0  1.097656  0
H  H3  1  0.13532906  0.35497506  0.89115955  1  0  0.091331  0  1.019122  0  0  0.097895  0  1.093999  0  0  0.103436  0  1.088809  0  0  0.079139  0.093686  0  1.098108  0
H  H4  1  0.13551581  0.89119042  0.35496213  1  0  0.091093  0  1.018789  0  0  0.097762  0  1.093627  0  0  0.103327  0  1.088387  0  0  0.079076  0.09354  0  1.097748  0
H  H5  1  0.86461272  0.64500951  0.10884858  1  0  0.091317  0  1.019114  0  0  0.09789  0  1.094005  0  0  0.103431  0  1.088804  0  0  0.079144  0.093676  0  1.098117  0
H  H6  1  0.19645506  0.13324480  0.40027813  1  0  0.093978  0  0.95566  0  0  0.103784  0  1.018788  0  0  0.106935  0  1.017422  0  0  0.093422  0.101402  0  1.019998  0
H  H7  1  0.80344324  0.59966353  0.86675585  1  0  0.093945  0  0.956013  0  0  0.103711  0  1.019102  0  0  0.106904  0  1.017675  0  0  0.093429  0.101305  0  1.020365  0
H  H8  1  0.80356737  0.86676486  0.59971366  1  0  0.093928  0  0.955744  0  0  0.103745  0  1.018857  0  0  0.106891  0  1.017485  0  0  0.093417  0.101349  0  1.02008  0
H  H9  1  0.19652254  0.40033518  0.13323384  1  0  0.093891  0  0.956251  0  0  0.103669  0  1.019343  0  0  0.106831  0  1.017953  0  0  0.093399  0.101269  0  1.020589  0
C  C10  1  0.67552985  0.36238554  0.51703698  1  0  0.174795  0  3.738148  0  0  0.172142  0  3.974817  0  0  0.177509  0  3.993668  0  0  0.109617  0.16845  0  3.962533  0
C  C11  1  0.32436231  0.48294335  0.63768972  1  0  0.174838  0  3.738207  0  0  0.172486  0  3.974572  0  0  0.177758  0  3.993472  0  0  0.109893  0.168824  0  3.962309  0
C  C12  1  0.32444860  0.63760272  0.48297106  1  0  0.174775  0  3.7379  0  0  0.172304  0  3.974322  0  0  0.177669  0  3.993141  0  0  0.109593  0.168641  0  3.962054  0
C  C13  1  0.67567168  0.51706361  0.36234160  1  0  0.174765  0  3.738272  0  0  0.172503  0  3.974651  0  0  0.177729  0  3.993622  0  0  0.109996  0.168929  0  3.962265  0
C  C14  1  0.86494118  0.22484295  0.52662749  1  0  -0.144715  0  3.720207  0  0  -0.164782  0  3.971358  0  0  -0.169893  0  3.98931  0  0  -0.098985  -0.161751  0  3.960146  0
C  C15  1  0.13496721  0.47332151  0.77522913  1  0  -0.144794  0  3.72088  0  0  -0.164811  0  3.971997  0  0  -0.169897  0  3.98995  0  0  -0.09905  -0.161796  0  3.960801  0
C  C16  1  0.13504221  0.77516499  0.47334419  1  0  -0.144725  0  3.719659  0  0  -0.164797  0  3.970828  0  0  -0.169903  0  3.988767  0  0  -0.098876  -0.161772  0  3.959611  0
C  C17  1  0.86505875  0.52667635  0.22478419  1  0  -0.144629  0  3.721387  0  0  -0.164646  0  3.972401  0  0  -0.169698  0  3.990341  0  0  -0.099033  -0.161657  0  3.961175  0
C  C18  1  0.04801725  0.23887929  0.39131342  1  0  -0.028987  0  3.721569  0  0  -0.043538  0  3.968351  0  0  -0.042364  0  3.986342  0  0  -0.085639  -0.044516  0  3.956807  0
C  C19  1  0.95190439  0.60860206  0.76118772  1  0  -0.029362  0  3.723101  0  0  -0.043894  0  3.969938  0  0  -0.04275  0  3.987872  0  0  -0.085994  -0.04486  0  3.958434  0
C  C20  1  0.95195156  0.76111325  0.60867795  1  0  -0.028983  0  3.721758  0  0  -0.043539  0  3.968524  0  0  -0.042366  0  3.986525  0  0  -0.085676  -0.044502  0  3.95698  0
C  C21  1  0.04808388  0.39142267  0.23879204  1  0  -0.02948  0  3.723482  0  0  -0.044015  0  3.970314  0  0  -0.042853  0  3.988255  0  0  -0.085993  -0.044982  0  3.958821  0
I  I22  1  0.30598912  0.87725168  0.87738053  1  0  -0.393112  0  1.601839  0  0  -0.330871  0  2.032825  0  0  -0.356104  0  1.996097  0  0  -0.155466  -0.312686  0  2.056443  0
I  I23  1  0.69402079  0.12274528  0.12262422  1  0  -0.393113  0  1.601701  0  0  -0.330849  0  2.032652  0  0  -0.356085  0  1.995931  0  0  -0.155454  -0.31267  0  2.056272  0
N  N24  1  0.49995399  0.34674314  0.65328148  1  0  -0.29798  0  3.28612  0  0  -0.232797  0  3.573044  0  0  -0.239067  0  3.577094  0  0  -0.347762  -0.229359  0  3.57007  0
N  N25  1  0.50007414  0.65325589  0.34673335  1  0  -0.297965  0  3.28632  0  0  -0.232836  0  3.573132  0  0  -0.2391  0  3.57721  0  0  -0.347853  -0.229422  0  3.570114  0
