# generated using pymatgen
data_HgH4C5S5Cl2
_symmetry_space_group_name_H-M   'P 1'
_cell_length_a   8.24406361
_cell_length_b   8.56229016
_cell_length_c   9.77587222
_cell_angle_alpha   102.33675764
_cell_angle_beta   100.60835889
_cell_angle_gamma   119.04033243
_symmetry_Int_Tables_number   1
_chemical_formula_structural   HgH4C5S5Cl2
_chemical_formula_sum   'Hg2 H8 C10 S10 Cl4'
_cell_volume   554.90236188
_cell_formula_units_Z   2
loop_
 _symmetry_equiv_pos_site_id
 _symmetry_equiv_pos_as_xyz
  1  'x, y, z'
loop_
 _atom_site_type_symbol
 _atom_site_label
 _atom_site_symmetry_multiplicity
 _atom_site_fract_x
 _atom_site_fract_y
 _atom_site_fract_z
 _atom_site_occupancy
 _atom_site_hle17_bader_spin_density
 _atom_site_hle17_ddec_charge
 _atom_site_hle17_ddec_spin_density
 _atom_site_hle17_ddec_sum_bond_order
 _atom_site_hle17_magmom
 _atom_site_hse06_10hf_bader_charge
 _atom_site_hse06_10hf_bader_spin_density
 _atom_site_hse06_10hf_ddec_charge
 _atom_site_hse06_10hf_ddec_spin_density
 _atom_site_hse06_10hf_ddec_sum_bond_order
 _atom_site_hse06_10hf_magmom
 _atom_site_hse06_bader_charge
 _atom_site_hse06_bader_spin_density
 _atom_site_hse06_ddec_charge
 _atom_site_hse06_ddec_spin_density
 _atom_site_hse06_ddec_sum_bond_order
 _atom_site_hse06_magmom
 _atom_site_pbe_bader_spin_density
 _atom_site_pbe_cm5_charge
 _atom_site_pbe_ddec_charge
 _atom_site_pbe_ddec_spin_density
 _atom_site_pbe_ddec_sum_bond_order
 _atom_site_pbe_magmom
Hg  Hg0  1  0.96045215  0.77967644  0.06130982  1  0  0.638648  0  2.218259  0  0.757566  0  0.51515  0  2.725246  0  0.818762  0  0.558354  0  2.69703  0  0  0.419779  0.485551  0  2.743928  0
Hg  Hg1  1  0.03955291  0.22032029  0.93869202  1  0  0.638634  0  2.218336  0  0.757612  0  0.515145  0  2.72531  0  0.818826  0  0.558359  0  2.697079  0  0  0.419761  0.485547  0  2.743991  0
H  H2  1  0.69618173  0.28306839  0.07404541  1  0  0.122698  0  0.914431  0  0.110389  0  0.13945  0  0.970753  0  0.11293  0  0.140657  0  0.970601  0  0  0.097644  0.13848  0  0.971053  0
H  H3  1  0.30383134  0.71693838  0.92595651  1  0  0.122687  0  0.914493  0  0.110407  0  0.139423  0  0.970814  0  0.112838  0  0.140632  0  0.970667  0  0  0.097646  0.138452  0  0.971117  0
H  H4  1  0.90081756  0.46960093  0.23265314  1  0  0.097122  0  0.98208  0  0.142723  0  0.105608  0  1.056448  0  0.148729  0  0.106845  0  1.056818  0  0  0.078664  0.10472  0  1.056235  0
H  H5  1  0.09918708  0.53040848  0.76735513  1  0  0.097111  0  0.982034  0  0.142801  0  0.105574  0  1.056421  0  0.148773  0  0.106817  0  1.056791  0  0  0.078617  0.104688  0  1.056208  0
H  H6  1  0.71820915  0.16280181  0.28070914  1  0  0.107909  0  0.937512  0  0.107246  0  0.123311  0  0.999572  0  0.108799  0  0.12447  0  0.999115  0  0  0.090773  0.122499  0  0.999894  0
H  H7  1  0.28179939  0.83720346  0.71929384  1  0  0.107865  0  0.937581  0  0.107254  0  0.123302  0  0.999607  0  0.109022  0  0.12446  0  0.99915  0  0  0.090759  0.122488  0  0.999935  0
H  H8  1  0.49726034  0.15935857  0.23344914  1  0  0.090629  0  0.980521  0  0.111664  0  0.099453  0  1.05507  0  0.114355  0  0.100269  0  1.055909  0  0  0.078277  0.098777  0  1.054651  0
H  H9  1  0.50274599  0.84063820  0.76654779  1  0  0.090669  0  0.980435  0  0.111769  0  0.099465  0  1.05501  0  0.114312  0  0.100282  0  1.055849  0  0  0.078265  0.098789  0  1.054599  0
C  C10  1  0.73227246  0.58738127  0.47314763  1  0  -0.085778  0  3.774875  0  -0.253074  0  -0.073573  0  4.065311  0  -0.256814  0  -0.071342  0  4.084961  0  0  -0.025591  -0.075019  0  4.051849  0
C  C11  1  0.26772565  0.41260962  0.52686327  1  0  -0.085512  0  3.775088  0  -0.253248  0  -0.07327  0  4.06538  0  -0.256579  0  -0.071048  0  4.085045  0  0  -0.02548  -0.074728  0  4.051928  0
C  C12  1  0.69449230  0.63878980  0.35266986  1  0  -0.103042  0  3.800437  0  -0.25596  0  -0.09157  0  4.089816  0  -0.261011  0  -0.090991  0  4.111086  0  0  -0.034437  -0.092084  0  4.075392  0
C  C13  1  0.30549685  0.36121381  0.64731340  1  0  -0.103217  0  3.800838  0  -0.255222  0  -0.091751  0  4.090218  0  -0.260902  0  -0.091173  0  4.11149  0  0  -0.034527  -0.092262  0  4.075793  0
C  C14  1  0.77650680  0.91462143  0.58122825  1  0  -0.06388  0  3.811502  0  -0.449914  0  -0.059644  0  4.130014  0  -0.495111  0  -0.044855  0  4.144228  0  0  -0.004279  -0.068839  0  4.119741  0
C  C15  1  0.22349065  0.08537940  0.41877215  1  0  -0.063888  0  3.811412  0  -0.449871  0  -0.059667  0  4.129967  0  -0.495312  0  -0.044874  0  4.144183  0  0  -0.00425  -0.068856  0  4.119681  0
C  C16  1  0.73973745  0.37513324  0.18873925  1  0  -0.143537  0  3.647306  0  -0.146051  0  -0.176055  0  3.899295  0  -0.148556  0  -0.176123  0  3.911561  0  0  -0.15864  -0.175953  0  3.890824  0
C  C17  1  0.26026859  0.62487198  0.81126333  1  0  -0.143519  0  3.647298  0  -0.146276  0  -0.176  0  3.89929  0  -0.148456  0  -0.176045  0  3.911482  0  0  -0.158622  -0.175899  0  3.89082  0
C  C18  1  0.65841228  0.25306047  0.28057141  1  0  -0.130761  0  3.633674  0  -0.152181  0  -0.162135  0  3.888526  0  -0.149771  0  -0.161572  0  3.899645  0  0  -0.154629  -0.162398  0  3.880804  0
C  C19  1  0.34159173  0.74694331  0.71942955  1  0  -0.130727  0  3.633739  0  -0.151976  0  -0.162143  0  3.888615  0  -0.14999  0  -0.161577  0  3.899744  0  0  -0.154585  -0.1624  0  3.8809  0
S  S20  1  0.63195873  0.51263792  0.16665377  1  0  0.08729  0  2.647823  0  0.184713  0  0.089156  0  3.024851  0  0.17779  0  0.082716  0  3.027156  0  0  0.027043  0.093788  0  3.0233  0
S  S21  1  0.36804247  0.48736299  0.83334621  1  0  0.08725  0  2.647535  0  0.184341  0  0.089128  0  3.02451  0  0.177763  0  0.082686  0  3.026819  0  0  0.02702  0.093758  0  3.022964  0
S  S22  1  0.73038195  0.38440940  0.47694282  1  0  0.070672  0  2.509627  0  0.170926  0  0.065705  0  2.867577  0  0.167033  0  0.059515  0  2.872629  0  0  0.017335  0.069847  0  2.864625  0
S  S23  1  0.26961176  0.61559136  0.52305801  1  0  0.070568  0  2.509243  0  0.170296  0  0.065602  0  2.867211  0  0.166588  0  0.059401  0  2.872277  0  0  0.017284  0.069744  0  2.864268  0
S  S24  1  0.71824088  0.85780859  0.39351823  1  0  0.233579  0  2.701665  0  0.381608  0  0.22041  0  3.060068  0  0.396456  0  0.222327  0  3.063708  0  0  0.12555  0.218204  0  3.057903  0
S  S25  1  0.28175455  0.14219080  0.60648056  1  0  0.233619  0  2.70149  0  0.381689  0  0.220445  0  3.059927  0  0.396422  0  0.222361  0  3.063563  0  0  0.125572  0.218238  0  3.057757  0
S  S26  1  0.79359975  0.75090500  0.64540870  1  0  0.229288  0  2.749111  0  0.399841  0  0.219974  0  3.114617  0  0.410125  0  0.221638  0  3.118087  0  0  0.126212  0.217949  0  3.112555  0
S  S27  1  0.20639364  0.24909294  0.35458949  1  0  0.229231  0  2.748874  0  0.399888  0  0.219937  0  3.114336  0  0.410418  0  0.221603  0  3.117802  0  0  0.12619  0.217917  0  3.112267  0
S  S28  1  0.80027141  0.11508622  0.68643254  1  0  -0.171426  0  2.329135  0  0.008146  0  -0.15377  0  2.711982  0  0.028272  0  -0.169417  0  2.710329  0  0  -0.111918  -0.143431  0  2.712948  0
S  S29  1  0.19973025  0.88491328  0.31356623  1  0  -0.171321  0  2.329015  0  0.00826  0  -0.15368  0  2.711921  0  0.028288  0  -0.16929  0  2.710192  0  0  -0.11186  -0.143344  0  2.712884  0
Cl  Cl30  1  0.78009616  0.96046605  0.05022655  1  0  -0.500056  0  1.059363  0  -0.575123  0  -0.439975  0  1.35089  0  -0.603787  0  -0.461941  0  1.336613  0  0  -0.289012  -0.424118  0  1.360205  0
Cl  Cl31  1  0.21990067  0.03952915  0.94976655  1  0  -0.500021  0  1.059383  0  -0.575092  0  -0.439929  0  1.350909  0  -0.603761  0  -0.4619  0  1.33664  0  0  -0.288993  -0.424072  0  1.360226  0
Cl  Cl32  1  0.78926052  0.48139678  0.84622610  1  0  -0.47939  0  1.114649  0  -0.542567  0  -0.42153  0  1.422357  0  -0.568215  0  -0.440611  0  1.407527  0  0  -0.282784  -0.408007  0  1.432364  0
Cl  Cl33  1  0.21072709  0.51859963  0.15377396  1  0  -0.479392  0  1.11463  0  -0.542584  0  -0.421548  0  1.422368  0  -0.568237  0  -0.440633  0  1.407536  0  0  -0.282784  -0.408025  0  1.432371  0
