# generated using pymatgen
data_NaH7(C2O3)2
_symmetry_space_group_name_H-M   'P 1'
_cell_length_a   6.03929540
_cell_length_b   6.41115934
_cell_length_c   9.21090781
_cell_angle_alpha   96.44578516
_cell_angle_beta   95.98790079
_cell_angle_gamma   115.39098910
_symmetry_Int_Tables_number   1
_chemical_formula_structural   NaH7(C2O3)2
_chemical_formula_sum   'Na2 H14 C8 O12'
_cell_volume   315.49857019
_cell_formula_units_Z   2
loop_
 _symmetry_equiv_pos_site_id
 _symmetry_equiv_pos_as_xyz
  1  'x, y, z'
loop_
 _atom_site_type_symbol
 _atom_site_label
 _atom_site_symmetry_multiplicity
 _atom_site_fract_x
 _atom_site_fract_y
 _atom_site_fract_z
 _atom_site_occupancy
 _atom_site_hle17_bader_spin_density
 _atom_site_hle17_ddec_charge
 _atom_site_hle17_ddec_spin_density
 _atom_site_hle17_ddec_sum_bond_order
 _atom_site_hle17_magmom
 _atom_site_hse06_10hf_bader_spin_density
 _atom_site_hse06_10hf_ddec_charge
 _atom_site_hse06_10hf_ddec_spin_density
 _atom_site_hse06_10hf_ddec_sum_bond_order
 _atom_site_hse06_10hf_magmom
 _atom_site_hse06_bader_spin_density
 _atom_site_hse06_ddec_charge
 _atom_site_hse06_ddec_spin_density
 _atom_site_hse06_ddec_sum_bond_order
 _atom_site_hse06_magmom
 _atom_site_pbe_bader_spin_density
 _atom_site_pbe_cm5_charge
 _atom_site_pbe_ddec_charge
 _atom_site_pbe_ddec_spin_density
 _atom_site_pbe_ddec_sum_bond_order
 _atom_site_pbe_magmom
Na  Na0  1  0.75573974  0.48182845  0.10030897  1  0  0.896488  0  0.365721  0  0  0.85229  0  0.516608  0  0  0.862057  0  0.495144  0  0  0.640421  0.844778  0  0.532725  0
Na  Na1  1  0.24425622  0.51816867  0.89969405  1  0  0.896481  0  0.36572  0  0  0.852285  0  0.516602  0  0  0.862043  0  0.495132  0  0  0.640438  0.844773  0  0.532714  0
H  H2  1  0.13116583  0.26297428  0.42557906  1  0  0.390866  0  0.911331  0  0  0.355641  0  0.99575  0  0  0.368272  0  0.984178  0  0  0.296845  0.346705  0  1.003771  0
H  H3  1  0.86883933  0.73703165  0.57442957  1  0  0.390873  0  0.911297  0  0  0.355677  0  0.995665  0  0  0.368311  0  0.984089  0  0  0.296847  0.346738  0  1.00369  0
H  H4  1  0.02484265  0.19635108  0.11323145  1  0  0.420573  0  0.883363  0  0  0.389289  0  0.948314  0  0  0.400413  0  0.931723  0  0  0.291788  0.381255  0  0.960243  0
H  H5  1  0.97515831  0.80365292  0.88676589  1  0  0.420592  0  0.883332  0  0  0.389304  0  0.948289  0  0  0.400428  0  0.931698  0  0  0.291789  0.38127  0  0.960217  0
H  H6  1  0.82151675  0.08978337  0.96587781  1  0  0.414846  0  0.886338  0  0  0.38767  0  0.945434  0  0  0.397518  0  0.930714  0  0  0.297093  0.380581  0  0.95611  0
H  H7  1  0.17848925  0.91022765  0.03412146  1  0  0.414752  0  0.886446  0  0  0.387635  0  0.94543  0  0  0.397476  0  0.930724  0  0  0.297084  0.380546  0  0.956106  0
H  H8  1  0.36364217  0.63713255  0.20730278  1  0  0.429159  0  0.864592  0  0  0.402688  0  0.921815  0  0  0.411912  0  0.908372  0  0  0.301801  0.395936  0  0.931805  0
H  H9  1  0.63635625  0.36286613  0.79269076  1  0  0.429124  0  0.864609  0  0  0.402652  0  0.921861  0  0  0.411875  0  0.908419  0  0  0.301772  0.395899  0  0.931851  0
H  H10  1  0.54345706  0.84949002  0.15071080  1  0  0.423623  0  0.866237  0  0  0.399811  0  0.923287  0  0  0.409123  0  0.909374  0  0  0.303374  0.393144  0  0.933321  0
H  H11  1  0.45653721  0.15050700  0.84928558  1  0  0.423588  0  0.86625  0  0  0.399767  0  0.923352  0  0  0.409084  0  0.90943  0  0  0.303358  0.393099  0  0.933387  0
H  H12  1  0.50726833  0.29862577  0.52217953  1  0  0.107651  0  0.936986  0  0  0.114468  0  1.001426  0  0  0.117573  0  0.999724  0  0  0.116619  0.111859  0  1.003499  0
H  H13  1  0.49272588  0.70136421  0.47781636  1  0  0.107626  0  0.936978  0  0  0.114434  0  1.001427  0  0  0.117539  0  0.999725  0  0  0.116599  0.111826  0  1.003499  0
H  H14  1  0.74452012  0.02036923  0.37324711  1  0  0.09926  0  0.951021  0  0  0.103181  0  1.02027  0  0  0.107223  0  1.017185  0  0  0.109738  0.100383  0  1.022525  0
H  H15  1  0.25547832  0.97962953  0.62675078  1  0  0.099212  0  0.951108  0  0  0.10312  0  1.020378  0  0  0.107157  0  1.017289  0  0  0.109721  0.100322  0  1.022633  0
C  C16  1  0.36668479  0.14246240  0.29535915  1  0  0.690072  0  3.831382  0  0  0.630292  0  4.146342  0  0  0.663408  0  4.139106  0  0  0.224256  0.607787  0  4.150294  0
C  C17  1  0.63331778  0.85753462  0.70464216  1  0  0.690103  0  3.831466  0  0  0.630277  0  4.1465  0  0  0.66339  0  4.139265  0  0  0.224239  0.607775  0  4.150455  0
C  C18  1  0.47049078  0.13453582  0.45122545  1  0  -0.139233  0  3.543753  0  0  -0.146421  0  3.778858  0  0  -0.151089  0  3.789624  0  0  -0.078976  -0.143005  0  3.771555  0
C  C19  1  0.52951100  0.86546983  0.54876664  1  0  -0.139224  0  3.543896  0  0  -0.1464  0  3.779013  0  0  -0.151072  0  3.78979  0  0  -0.078968  -0.142966  0  3.771656  0
C  C20  1  0.69364527  0.07654178  0.47580229  1  0  -0.157046  0  3.555179  0  0  -0.169631  0  3.790822  0  0  -0.174532  0  3.800277  0  0  -0.085225  -0.166348  0  3.784297  0
C  C21  1  0.30635651  0.92345710  0.52420344  1  0  -0.15703  0  3.55529  0  0  -0.169577  0  3.790934  0  0  -0.174463  0  3.800371  0  0  -0.08525  -0.166294  0  3.784411  0
C  C22  1  0.91638594  0.26764063  0.57829591  1  0  0.69795  0  3.771454  0  0  0.641696  0  4.083983  0  0  0.675341  0  4.073812  0  0  0.232329  0.618782  0  4.090178  0
C  C23  1  0.08362924  0.73237233  0.42171826  1  0  0.697904  0  3.771533  0  0  0.641603  0  4.084117  0  0  0.675235  0  4.07397  0  0  0.23234  0.618691  0  4.090308  0
O  O24  1  0.46613604  0.11628769  0.18548756  1  0  -0.666759  0  1.963074  0  0  -0.610715  0  2.193921  0  0  -0.633245  0  2.181495  0  0  -0.336062  -0.594872  0  2.202634  0
O  O25  1  0.53386906  0.88371453  0.81451103  1  0  -0.666753  0  1.963202  0  0  -0.610651  0  2.194035  0  0  -0.633182  0  2.181604  0  0  -0.33601  -0.594812  0  2.202749  0
O  O26  1  0.17127975  0.17800014  0.28580074  1  0  -0.629412  0  2.024638  0  0  -0.559664  0  2.245566  0  0  -0.586921  0  2.236501  0  0  -0.302077  -0.540282  0  2.250994  0
O  O27  1  0.82872876  0.82201606  0.71419473  1  0  -0.629466  0  2.024893  0  0  -0.559677  0  2.245787  0  0  -0.586945  0  2.23675  0  0  -0.302073  -0.540296  0  2.251212  0
O  O28  1  0.13339875  0.34400863  0.53433301  1  0  -0.560611  0  2.138524  0  0  -0.505262  0  2.374491  0  0  -0.529283  0  2.362317  0  0  -0.31776  -0.488341  0  2.382379  0
O  O29  1  0.86660292  0.65598299  0.46566135  1  0  -0.56064  0  2.138469  0  0  -0.505301  0  2.374436  0  0  -0.529324  0  2.362277  0  0  -0.317787  -0.488379  0  2.382323  0
O  O30  1  0.89888115  0.35289908  0.70202721  1  0  -0.616752  0  1.977669  0  0  -0.566116  0  2.210722  0  0  -0.587653  0  2.200496  0  0  -0.337242  -0.551497  0  2.218083  0
O  O31  1  0.10110729  0.64708945  0.29798228  1  0  -0.616746  0  1.97754  0  0  -0.566111  0  2.210634  0  0  -0.587646  0  2.200418  0  0  -0.337246  -0.551493  0  2.217994  0
O  O32  1  0.95501780  0.23622998  0.02413925  1  0  -0.912858  0  1.805414  0  0  -0.870013  0  1.981854  0  0  -0.885996  0  1.94835  0  0  -0.685963  -0.858467  0  2.005866  0
O  O33  1  0.04498064  0.76376882  0.97586080  1  0  -0.912761  0  1.805509  0  0  -0.869938  0  1.981914  0  0  -0.885919  0  1.948418  0  0  -0.685936  -0.858391  0  2.005927  0
O  O34  1  0.49820691  0.68194281  0.14761379  1  0  -0.887767  0  1.751365  0  0  -0.849192  0  1.919559  0  0  -0.864093  0  1.888295  0  0  -0.670966  -0.838394  0  1.942435  0
O  O35  1  0.50178573  0.31805770  0.85238055  1  0  -0.887685  0  1.751339  0  0  -0.849111  0  1.919582  0  0  -0.864013  0  1.888313  0  0  -0.67091  -0.838312  0  1.942457  0
