# generated using pymatgen
data_ZnH16C12(N2O3)2
_symmetry_space_group_name_H-M   'P 1'
_cell_length_a   6.31096308
_cell_length_b   6.98548393
_cell_length_c   9.10938747
_cell_angle_alpha   107.48821351
_cell_angle_beta   99.30591900
_cell_angle_gamma   104.26365298
_symmetry_Int_Tables_number   1
_chemical_formula_structural   ZnH16C12(N2O3)2
_chemical_formula_sum   'Zn1 H16 C12 N4 O6'
_cell_volume   358.94341662
_cell_formula_units_Z   1
loop_
 _symmetry_equiv_pos_site_id
 _symmetry_equiv_pos_as_xyz
  1  'x, y, z'
loop_
 _atom_site_type_symbol
 _atom_site_label
 _atom_site_symmetry_multiplicity
 _atom_site_fract_x
 _atom_site_fract_y
 _atom_site_fract_z
 _atom_site_occupancy
 _atom_site_hle17_bader_spin_density
 _atom_site_hle17_ddec_charge
 _atom_site_hle17_ddec_spin_density
 _atom_site_hle17_ddec_sum_bond_order
 _atom_site_hle17_magmom
 _atom_site_hse06_10hf_bader_spin_density
 _atom_site_hse06_10hf_ddec_charge
 _atom_site_hse06_10hf_ddec_spin_density
 _atom_site_hse06_10hf_ddec_sum_bond_order
 _atom_site_hse06_10hf_magmom
 _atom_site_hse06_bader_spin_density
 _atom_site_hse06_ddec_charge
 _atom_site_hse06_ddec_spin_density
 _atom_site_hse06_ddec_sum_bond_order
 _atom_site_hse06_magmom
 _atom_site_pbe_bader_spin_density
 _atom_site_pbe_cm5_charge
 _atom_site_pbe_ddec_charge
 _atom_site_pbe_ddec_spin_density
 _atom_site_pbe_ddec_sum_bond_order
 _atom_site_pbe_magmom
Zn  Zn0  1  0.50004031  0.00006637  0.50001481  1  0  0.98874  0  1.910474  0  0  0.815915  0  2.358264  0  0  0.86171  0  2.308608  0  0  0.678123  0.783926  0  2.392356  0
H  H1  1  0.02480671  0.17429914  0.05155749  1  0  0.096505  0  0.950195  0  0  0.114927  0  1.018273  0  0  0.115445  0  1.018728  0  0  0.101472  0.114528  0  1.018034  0
H  H2  1  0.97515223  0.82552790  0.94839287  1  0  0.096627  0  0.950402  0  0  0.114909  0  1.018575  0  0  0.115427  0  1.019037  0  0  0.101513  0.114515  0  1.018326  0
H  H3  1  0.94093427  0.17630419  0.85398014  1  0  0.117239  0  0.956695  0  0  0.134119  0  1.023982  0  0  0.135706  0  1.02289  0  0  0.10975  0.132962  0  1.02485  0
H  H4  1  0.05903165  0.82358303  0.14597561  1  0  0.117307  0  0.956803  0  0  0.134233  0  1.023965  0  0  0.135825  0  1.022866  0  0  0.109747  0.133046  0  1.02488  0
H  H5  1  0.10742880  0.41352838  0.01518512  1  0  0.097734  0  0.949576  0  0  0.118409  0  1.012563  0  0  0.118994  0  1.01288  0  0  0.103151  0.11804  0  1.012188  0
H  H6  1  0.89251707  0.58634808  0.98481621  1  0  0.097713  0  0.949876  0  0  0.118315  0  1.012891  0  0  0.118886  0  1.013228  0  0  0.103132  0.117946  0  1.012511  0
H  H7  1  0.14668562  0.09002542  0.69049000  1  0  0.056834  0  0.95703  0  0  0.061422  0  1.033342  0  0  0.063951  0  1.027325  0  0  0.122401  0.059574  0  1.037674  0
H  H8  1  0.85338390  0.90996206  0.30949307  1  0  0.056695  0  0.957052  0  0  0.061273  0  1.033333  0  0  0.063792  0  1.027349  0  0  0.122375  0.059426  0  1.03766  0
H  H9  1  0.44279383  0.16599398  0.13918259  1  0  0.104822  0  0.947892  0  0  0.124882  0  1.011359  0  0  0.124943  0  1.012508  0  0  0.102437  0.124728  0  1.010814  0
H  H10  1  0.55709636  0.83388384  0.86080492  1  0  0.10499  0  0.947953  0  0  0.125046  0  1.011402  0  0  0.125115  0  1.012541  0  0  0.102532  0.124896  0  1.010858  0
H  H11  1  0.49787629  0.43198435  0.14479574  1  0  0.098601  0  0.944185  0  0  0.117189  0  1.010596  0  0  0.117054  0  1.011753  0  0  0.101508  0.117374  0  1.009727  0
H  H12  1  0.50206026  0.56791260  0.85520723  1  0  0.098411  0  0.943915  0  0  0.11728  0  1.01002  0  0  0.117146  0  1.011176  0  0  0.101484  0.117465  0  1.009151  0
H  H13  1  0.62726979  0.26211006  0.03031913  1  0  0.117672  0  0.943752  0  0  0.138281  0  1.003059  0  0  0.140082  0  1.001642  0  0  0.111057  0.136877  0  1.004254  0
H  H14  1  0.37270067  0.73778815  0.96971224  1  0  0.117798  0  0.943615  0  0  0.138434  0  1.002872  0  0  0.140231  0  1.001463  0  0  0.111059  0.137026  0  1.004077  0
H  H15  1  0.86804795  0.77228500  0.60913223  1  0  0.106699  0  0.930321  0  0  0.110003  0  1.000435  0  0  0.113755  0  0.99677  0  0  0.128753  0.107172  0  1.003409  0
H  H16  1  0.13198766  0.22785365  0.39088101  1  0  0.106915  0  0.930485  0  0  0.110187  0  1.000508  0  0  0.113948  0  0.99684  0  0  0.128861  0.107357  0  1.003485  0
C  C17  1  0.07660689  0.24234935  0.96399008  1  0  -0.181491  0  3.658826  0  0  -0.286276  0  3.913653  0  0  -0.282969  0  3.923509  0  0  -0.136897  -0.288433  0  3.906874  0
C  C18  1  0.92335437  0.75753894  0.03598624  1  0  -0.181721  0  3.659758  0  0  -0.286387  0  3.914578  0  0  -0.28307  0  3.924431  0  0  -0.136863  -0.288526  0  3.907815  0
C  C19  1  0.30154265  0.12542736  0.78302615  1  0  0.385856  0  3.784364  0  0  0.311449  0  4.074753  0  0  0.340159  0  4.073134  0  0  0.171396  0.292098  0  4.075162  0
C  C20  1  0.69846701  0.87451035  0.21695888  1  0  0.385905  0  3.784164  0  0  0.311602  0  4.074446  0  0  0.34031  0  4.07282  0  0  0.171592  0.292248  0  4.07485  0
C  C21  1  0.47358357  0.26890378  0.06922216  1  0  -0.167731  0  3.627612  0  0  -0.267137  0  3.873036  0  0  -0.263106  0  3.882522  0  0  -0.139551  -0.269683  0  3.866644  0
C  C22  1  0.52635406  0.73098196  0.93078593  1  0  -0.167863  0  3.627387  0  0  -0.267487  0  3.872877  0  0  -0.263462  0  3.882367  0  0  -0.1396  -0.270038  0  3.866488  0
C  C23  1  0.87804091  0.37813279  0.61607221  1  0  0.603205  0  3.968019  0  0  0.550604  0  4.272223  0  0  0.583885  0  4.265357  0  0  0.20239  0.527938  0  4.276459  0
C  C24  1  0.12199677  0.62206592  0.38395020  1  0  0.603308  0  3.966433  0  0  0.55068  0  4.270556  0  0  0.583991  0  4.263692  0  0  0.202358  0.528007  0  4.274793  0
C  C25  1  0.70339479  0.65110246  0.56150356  1  0  0.116159  0  3.606028  0  0  0.076281  0  3.862191  0  0  0.081456  0  3.87536  0  0  0.07839  0.072493  0  3.854743  0
C  C26  1  0.29659277  0.34900254  0.43850480  1  0  0.116494  0  3.604747  0  0  0.076685  0  3.860836  0  0  0.081895  0  3.874047  0  0  0.078475  0.072881  0  3.853379  0
C  C27  1  0.67905515  0.44443552  0.55544568  1  0  0.076929  0  3.676716  0  0  0.079395  0  3.918779  0  0  0.079697  0  3.934371  0  0  0.129467  0.078554  0  3.909934  0
C  C28  1  0.32100053  0.55570517  0.44455611  1  0  0.076308  0  3.676963  0  0  0.078913  0  3.918765  0  0  0.079071  0  3.934554  0  0  0.12954  0.078125  0  3.909843  0
N  N29  1  0.28290464  0.20208298  0.93185963  1  0  -0.086922  0  3.51543  0  0  0.017307  0  3.747235  0  0  -0.00255  0  3.772299  0  0  -0.283262  0.030837  0  3.729719  0
N  N30  1  0.71709456  0.79782299  0.06812205  1  0  -0.086834  0  3.515565  0  0  0.01738  0  3.747372  0  0  -0.002463  0  3.772427  0  0  -0.283477  0.030913  0  3.729847  0
N  N31  1  0.47496876  0.29616689  0.49335149  1  0  -0.268379  0  3.253341  0  0  -0.201946  0  3.512418  0  0  -0.213725  0  3.525954  0  0  -0.2951  -0.194861  0  3.504733  0
N  N32  1  0.52507516  0.70395295  0.50665600  1  0  -0.26797  0  3.254935  0  0  -0.201495  0  3.513871  0  0  -0.213229  0  3.527466  0  0  -0.295132  -0.194426  0  3.506161  0
O  O33  1  0.48078899  0.09928323  0.74918632  1  0  -0.550156  0  2.102413  0  0  -0.495001  0  2.369326  0  0  -0.52005  0  2.361879  0  0  -0.309372  -0.477018  0  2.373737  0
O  O34  1  0.51923827  0.90068896  0.25082331  1  0  -0.550136  0  2.102502  0  0  -0.495006  0  2.369369  0  0  -0.520056  0  2.361915  0  0  -0.309404  -0.477019  0  2.373777  0
O  O35  1  0.06062380  0.52027194  0.69158221  1  0  -0.585539  0  1.906726  0  0  -0.545382  0  2.134409  0  0  -0.568529  0  2.129766  0  0  -0.314668  -0.528452  0  2.136716  0
O  O36  1  0.93941150  0.47994403  0.30844627  1  0  -0.585526  0  1.905725  0  0  -0.545294  0  2.133318  0  0  -0.568457  0  2.128717  0  0  -0.31457  -0.528359  0  2.135607  0
O  O37  1  0.83924750  0.17790755  0.58281733  1  0  -0.63265  0  2.044466  0  0  -0.566815  0  2.30715  0  0  -0.595372  0  2.29492  0  0  -0.322447  -0.547028  0  2.314914  0
O  O38  1  0.16083673  0.82227209  0.41722677  1  0  -0.632548  0  2.04415  0  0  -0.566894  0  2.307105  0  0  -0.595436  0  2.294856  0  0  -0.32262  -0.547112  0  2.314878  0
