# generated using pymatgen
data_CrH16C8(BrO)2
_symmetry_space_group_name_H-M   'P 1'
_cell_length_a   4.05788019
_cell_length_b   7.41503818
_cell_length_c   9.19609970
_cell_angle_alpha   87.40746149
_cell_angle_beta   78.73426487
_cell_angle_gamma   87.13406618
_symmetry_Int_Tables_number   1
_chemical_formula_structural   CrH16C8(BrO)2
_chemical_formula_sum   'Cr1 H16 C8 Br2 O2'
_cell_volume   270.85577149
_cell_formula_units_Z   1
loop_
 _symmetry_equiv_pos_site_id
 _symmetry_equiv_pos_as_xyz
  1  'x, y, z'
loop_
 _atom_site_type_symbol
 _atom_site_label
 _atom_site_symmetry_multiplicity
 _atom_site_fract_x
 _atom_site_fract_y
 _atom_site_fract_z
 _atom_site_occupancy
 _atom_site_hle17_ddec_charge
 _atom_site_hle17_ddec_spin_density
 _atom_site_hle17_ddec_sum_bond_order
 _atom_site_hle17_magmom
 _atom_site_hse06_10hf_ddec_charge
 _atom_site_hse06_10hf_ddec_spin_density
 _atom_site_hse06_10hf_ddec_sum_bond_order
 _atom_site_hse06_10hf_magmom
 _atom_site_hse06_ddec_charge
 _atom_site_hse06_ddec_spin_density
 _atom_site_hse06_ddec_sum_bond_order
 _atom_site_hse06_magmom
 _atom_site_pbe_cm5_charge
 _atom_site_pbe_ddec_charge
 _atom_site_pbe_ddec_spin_density
 _atom_site_pbe_ddec_sum_bond_order
 _atom_site_pbe_magmom
Cr  Cr0  1  0.49999724  0.50000243  0.49999924  1  0.991873  4.021069  1.849948  3.839  0.946828  3.847899  2.263581  3.682  1.008066  3.867855  2.205093  3.717  0.55797  0.899923  3.822709  2.312191  3.642
H  H1  1  0.41088778  0.47118713  0.85031376  1  0.057658  -0.00014  0.963985  0.0  0.069634  0.000107  1.036717  0.0  0.070405  -6.5e-05  1.035591  0.0  0.092619  0.068856  0.000228  1.037984  0.0
H  H2  1  0.58911203  0.52881367  0.14968548  1  0.057656  -0.000139  0.963968  0.0  0.069652  0.000107  1.036675  0.0  0.070423  -6.6e-05  1.035549  0.0  0.092603  0.068874  0.000228  1.037942  0.0
H  H3  1  0.00552296  0.57033565  0.83931777  1  0.055969  -0.000117  0.945011  0.0  0.071344  -2.7e-05  1.008421  0.001  0.071829  -0.000168  1.008266  0.0  0.092498  0.070767  9.6e-05  1.008878  0.001
H  H4  1  0.99447696  0.42966379  0.16068259  1  0.055975  -0.000116  0.945009  0.0  0.071343  -2.7e-05  1.008425  0.001  0.071827  -0.000169  1.008269  0.0  0.092492  0.070766  9.6e-05  1.008882  0.001
H  H5  1  0.01035384  0.95557854  0.83368575  1  0.077084  -0.000414  0.949525  0.0  0.096703  -0.000291  1.007974  0.0  0.097069  -0.000301  1.009489  0.0  0.089365  0.09644  -0.000288  1.006891  0.0
H  H6  1  0.98964608  0.04442089  0.16631461  1  0.077076  -0.000414  0.94953  0.0  0.096706  -0.000291  1.007974  0.0  0.097073  -0.000301  1.009488  0.0  0.089361  0.096443  -0.000288  1.006891  0.0
H  H7  1  0.39715675  0.03893620  0.85752129  1  0.084738  -0.000172  0.948782  0.0  0.103539  0.000196  1.009154  0.0  0.10441  7e-05  1.009473  0.0  0.092084  0.102955  0.000309  1.00903  0.0
H  H8  1  0.60284076  0.96106189  0.14248041  1  0.08473  -0.000172  0.948762  0.0  0.10354  0.000196  1.009134  0.0  0.10441  6.9e-05  1.009454  0.0  0.092083  0.102956  0.000309  1.00901  0.0
H  H9  1  0.57735389  0.74248596  0.95236633  1  0.069122  -4e-06  0.956669  0.0  0.089073  -2e-06  1.018215  0.0  0.089326  -1.9e-05  1.019378  0.0  0.090536  0.088917  -3e-06  1.017362  0.0
H  H10  1  0.42264603  0.25751348  0.04763403  1  0.069124  -4e-06  0.95667  0.0  0.089081  -2e-06  1.018214  0.0  0.089333  -1.9e-05  1.019379  0.0  0.090538  0.088924  -3e-06  1.017361  0.0
H  H11  1  0.14485262  0.75046985  0.03532340  1  0.0843  -0.000371  0.958701  0.0  0.101441  -0.000152  1.024229  0.0  0.102208  -0.000205  1.024847  0.0  0.091181  0.099204  -0.000243  1.026868  0.0
H  H12  1  0.85514730  0.24952959  0.96467696  1  0.084317  -0.000373  0.95868  0.0  0.101481  -0.000152  1.024187  0.0  0.102253  -0.000205  1.024803  0.0  0.091192  0.099243  -0.000243  1.026829  0.0
H  H13  1  0.31762132  0.91640718  0.58661555  1  0.065687  -0.000539  0.964186  0.0  0.076857  -0.000365  1.035307  0.0  0.077459  -0.00049  1.034653  0.0  0.09183  0.075944  -0.000237  1.036781  0.0
H  H14  1  0.68238101  0.08359360  0.41338565  1  0.065681  -0.000537  0.964161  0.0  0.076858  -0.000365  1.035298  0.0  0.077458  -0.000489  1.034631  0.0  0.091823  0.075946  -0.000237  1.036772  0.0
H  H15  1  0.71104988  0.88286796  0.64623603  1  0.06143  -0.000222  0.948061  0.0  0.073107  -2.7e-05  1.016262  0.0  0.074021  -0.000205  1.015179  0.0  0.090228  0.072532  0.000167  1.016928  0.001
H  H16  1  0.28895005  0.11713147  0.35376541  1  0.061386  -0.000223  0.948081  0.0  0.073122  -2.7e-05  1.016245  0.0  0.073996  -0.000205  1.015195  0.0  0.090209  0.072546  0.000167  1.016911  0.001
C  C17  1  0.27200238  0.59827647  0.83208665  1  0.096525  0.000786  3.569671  0.001  0.036653  0.002386  3.83489  0.002  0.044924  0.001784  3.840107  0.002  -0.07749  0.031114  0.002862  3.830741  0.002
C  C18  1  0.72799754  0.40172297  0.16791371  1  0.096509  0.000782  3.569634  0.001  0.036628  0.002387  3.834834  0.002  0.044905  0.001785  3.840054  0.002  -0.077493  0.03109  0.002863  3.830685  0.002
C  C19  1  0.27794501  0.91932998  0.82901839  1  -0.141909  -0.001397  3.666232  0.0  -0.180047  -0.000367  3.917669  0.0  -0.181947  -0.00048  3.930426  0.0  -0.171698  -0.17832  -0.000244  3.908201  0.0
C  C20  1  0.72205502  0.08066810  0.17098200  1  -0.141869  -0.001395  3.666154  0.0  -0.180034  -0.000367  3.917649  0.0  -0.181937  -0.000481  3.930394  0.0  -0.171698  -0.178305  -0.000244  3.908179  0.0
C  C21  1  0.32190794  0.75186432  0.92850932  1  -0.152764  -0.001166  3.684913  -0.001  -0.196042  -0.000323  3.945006  0.0  -0.197968  -0.000363  3.957638  0.0  -0.172386  -0.194099  -4.5e-05  3.93703  0.0
C  C22  1  0.67809198  0.24813511  0.07149104  1  -0.152773  -0.001163  3.68492  -0.001  -0.196072  -0.000322  3.945014  0.0  -0.198005  -0.000362  3.957653  0.0  -0.172386  -0.194129  -4.5e-05  3.937037  0.0
C  C23  1  0.44107939  0.85853234  0.67492996  1  0.096007  0.00029  3.540948  0.001  0.037547  0.002107  3.799962  0.002  0.046209  0.001476  3.804242  0.001  -0.078146  0.031611  0.002833  3.797943  0.002
C  C24  1  0.55892294  0.14146844  0.32507014  1  0.096071  0.000289  3.540872  0.001  0.037522  0.002106  3.799966  0.002  0.046239  0.001476  3.804212  0.001  -0.078146  0.031585  0.002832  3.797947  0.002
Br  Br25  1  0.11521382  0.70621128  0.37201060  1  -0.576159  -0.008873  1.032848  -0.037  -0.569269  0.05845  1.366833  0.006  -0.591676  0.052052  1.33849  0.005  -0.249266  -0.550947  0.066759  1.391001  0.01
Br  Br26  1  0.88478327  0.29379222  0.62798878  1  -0.576154  -0.00888  1.032817  -0.037  -0.569267  0.058448  1.366802  0.006  -0.591675  0.052046  1.338461  0.005  -0.249259  -0.550942  0.066755  1.390965  0.01
O  O27  1  0.40522298  0.66217367  0.68080057  1  -0.373617  0.001807  2.402883  -0.019  -0.283954  0.014359  2.668652  -0.006  -0.3103  0.012988  2.669438  -0.006  -0.260347  -0.264938  0.016451  2.669212  -0.004
O  O28  1  0.59477432  0.33782712  0.31919997  1  -0.373673  0.001808  2.402844  -0.019  -0.283973  0.014359  2.668597  -0.006  -0.310337  0.012988  2.669379  -0.006  -0.260297  -0.264957  0.016451  2.669157  -0.004
