# generated using pymatgen
data_CdH5C5NCl2O
_symmetry_space_group_name_H-M   'P 1'
_cell_length_a   6.77137807
_cell_length_b   7.51819334
_cell_length_c   8.90877081
_cell_angle_alpha   111.51713164
_cell_angle_beta   108.57587630
_cell_angle_gamma   98.33684190
_symmetry_Int_Tables_number   1
_chemical_formula_structural   CdH5C5NCl2O
_chemical_formula_sum   'Cd2 H10 C10 N2 Cl4 O2'
_cell_volume   381.90748065
_cell_formula_units_Z   2
loop_
 _symmetry_equiv_pos_site_id
 _symmetry_equiv_pos_as_xyz
  1  'x, y, z'
loop_
 _atom_site_type_symbol
 _atom_site_label
 _atom_site_symmetry_multiplicity
 _atom_site_fract_x
 _atom_site_fract_y
 _atom_site_fract_z
 _atom_site_occupancy
 _atom_site_pbe_bader_spin_density
 _atom_site_pbe_cm5_charge
 _atom_site_pbe_ddec_charge
 _atom_site_pbe_ddec_spin_density
 _atom_site_pbe_ddec_sum_bond_order
 _atom_site_pbe_magmom
Cd  Cd0  1  0.50001478  0.50000867  0.50000159  1  0  0.588955  0.859161  0  2.364569  0
Cd  Cd1  1  0.00002451  0.50001527  0.50001785  1  0  0.589092  0.859805  0  2.363529  0
H  H2  1  0.74549024  0.61187423  0.91661227  1  0  0.099425  0.133544  0  1.025186  0
H  H3  1  0.17115293  0.80461396  0.91700485  1  0  0.100077  0.134624  0  1.023993  0
H  H4  1  0.25448960  0.38808354  0.08339806  1  0  0.099407  0.133466  0  1.025316  0
H  H5  1  0.82888825  0.19539134  0.08298728  1  0  0.100111  0.134692  0  1.023729  0
H  H6  1  0.89767018  0.77923865  0.24719721  1  0  0.104162  0.09705  0  1.043757  0
H  H7  1  0.34984155  0.96832166  0.24761866  1  0  0.104091  0.097003  0  1.044551  0
H  H8  1  0.10231737  0.22074312  0.75282562  1  0  0.104179  0.097062  0  1.043619  0
H  H9  1  0.65017851  0.03169554  0.75237325  1  0  0.104116  0.097078  0  1.04457  0
H  H10  1  0.69436297  0.94449093  0.38838371  1  0  0.304653  0.263801  0  0.961798  0
H  H11  1  0.30563141  0.05552793  0.61162510  1  0  0.30465  0.26387  0  0.961687  0
C  C12  1  0.44349578  0.69336729  0.88743455  1  0  0.105464  0.40974  0  4.103809  0
C  C13  1  0.55648769  0.30661377  0.11252761  1  0  0.105178  0.409353  0  4.104352  0
C  C14  1  0.65420912  0.69021596  0.98550914  1  0  -0.106258  -0.26505  0  3.921319  0
C  C15  1  0.33104423  0.79473210  0.98570260  1  0  -0.106899  -0.266214  0  3.920771  0
C  C16  1  0.34577263  0.30978786  0.01448874  1  0  -0.106214  -0.264834  0  3.921834  0
C  C17  1  0.66896823  0.20525545  0.01430317  1  0  -0.106867  -0.266161  0  3.920833  0
C  C18  1  0.73980896  0.78110185  0.16629824  1  0  0.046985  0.117129  0  3.917356  0
C  C19  1  0.42639776  0.88507050  0.16649505  1  0  0.046827  0.116741  0  3.918037  0
C  C20  1  0.26022615  0.21895162  0.83373635  1  0  0.04687  0.117055  0  3.917668  0
C  C21  1  0.57362256  0.11493201  0.83351489  1  0  0.046712  0.116486  0  3.917948  0
N  N22  1  0.62672357  0.87670972  0.25347233  1  0  -0.370209  -0.168838  0  3.719589  0
N  N23  1  0.37326561  0.12328241  0.74654507  1  0  -0.37022  -0.168932  0  3.718985  0
Cl  Cl24  1  0.22119079  0.67500650  0.37057609  1  0  -0.285496  -0.492821  0  1.276546  0
Cl  Cl25  1  0.14931265  0.19567512  0.37024588  1  0  -0.286054  -0.492938  0  1.275837  0
Cl  Cl26  1  0.77880957  0.32499731  0.62941944  1  0  -0.285476  -0.492828  0  1.276566  0
Cl  Cl27  1  0.85068103  0.80432262  0.62974061  1  0  -0.286001  -0.492876  0  1.275959  0
O  O28  1  0.35778675  0.60764054  0.71576596  1  0  -0.345799  -0.543274  0  2.433873  0
O  O29  1  0.64213140  0.39233126  0.28417461  1  0  -0.345461  -0.542896  0  2.433896  0
