# generated using pymatgen
data_ZnH4C4(NCl)2
_symmetry_space_group_name_H-M   'P 1'
_cell_length_a   3.55032174
_cell_length_b   7.05620029
_cell_length_c   12.17707610
_cell_angle_alpha   89.99870999
_cell_angle_beta   89.99980490
_cell_angle_gamma   89.99997571
_symmetry_Int_Tables_number   1
_chemical_formula_structural   ZnH4C4(NCl)2
_chemical_formula_sum   'Zn2 H8 C8 N4 Cl4'
_cell_volume   305.05744746
_cell_formula_units_Z   2
loop_
 _symmetry_equiv_pos_site_id
 _symmetry_equiv_pos_as_xyz
  1  'x, y, z'
loop_
 _atom_site_type_symbol
 _atom_site_label
 _atom_site_symmetry_multiplicity
 _atom_site_fract_x
 _atom_site_fract_y
 _atom_site_fract_z
 _atom_site_occupancy
 _atom_site_hle17_bader_spin_density
 _atom_site_hle17_ddec_charge
 _atom_site_hle17_ddec_spin_density
 _atom_site_hle17_ddec_sum_bond_order
 _atom_site_hle17_magmom
 _atom_site_hse06_10hf_bader_spin_density
 _atom_site_hse06_10hf_ddec_charge
 _atom_site_hse06_10hf_ddec_spin_density
 _atom_site_hse06_10hf_ddec_sum_bond_order
 _atom_site_hse06_10hf_magmom
 _atom_site_hse06_bader_spin_density
 _atom_site_hse06_ddec_charge
 _atom_site_hse06_ddec_spin_density
 _atom_site_hse06_ddec_sum_bond_order
 _atom_site_hse06_magmom
 _atom_site_pbe_bader_spin_density
 _atom_site_pbe_cm5_charge
 _atom_site_pbe_ddec_charge
 _atom_site_pbe_ddec_spin_density
 _atom_site_pbe_ddec_sum_bond_order
 _atom_site_pbe_magmom
Zn  Zn0  1  0.99999941  0.00000017  0.50000131  1  0  0.838357  0  2.043131  0  0  0.687918  0  2.457617  0  0  0.72981  0  2.419486  0  0  0.516409  0.65859  0  2.483632  0
Zn  Zn1  1  0.99999951  0.00000982  0.00000279  1  0  0.838302  0  2.043265  0  0  0.687929  0  2.457839  0  0  0.729653  0  2.41974  0  0  0.516391  0.658552  0  2.483866  0
H  H2  1  0.99999756  0.91580977  0.75000440  1  0  0.071597  0  0.961436  0  0  0.075953  0  1.035004  0  0  0.078432  0  1.030574  0  0  0.114901  0.073892  0  1.038517  0
H  H3  1  0.99999801  0.08419761  0.25000314  1  0  0.071372  0  0.961202  0  0  0.075766  0  1.034906  0  0  0.078265  0  1.030428  0  0  0.114922  0.073733  0  1.038353  0
H  H4  1  0.00000004  0.41745892  0.92734878  1  0  0.085367  0  0.955902  0  0  0.091441  0  1.026723  0  0  0.09408  0  1.022589  0  0  0.10809  0.089344  0  1.029889  0
H  H5  1  0.00000007  0.58255033  0.42736560  1  0  0.085288  0  0.955979  0  0  0.091334  0  1.026802  0  0  0.093986  0  1.022641  0  0  0.108061  0.08924  0  1.029964  0
H  H6  1  0.99999883  0.58254857  0.07263873  1  0  0.085422  0  0.955684  0  0  0.091425  0  1.026575  0  0  0.09406  0  1.022443  0  0  0.108052  0.089325  0  1.029746  0
H  H7  1  0.00000211  0.41743033  0.57263637  1  0  0.085244  0  0.956099  0  0  0.091349  0  1.026889  0  0  0.094008  0  1.022721  0  0  0.108076  0.089258  0  1.030046  0
H  H8  1  0.00000381  0.60477562  0.74998723  1  0  0.129763  0  0.958481  0  0  0.135233  0  1.023393  0  0  0.138781  0  1.022077  0  0  0.103099  0.132556  0  1.024753  0
H  H9  1  0.99999788  0.39523470  0.25000274  1  0  0.129579  0  0.959045  0  0  0.13531  0  1.023674  0  0  0.13886  0  1.022352  0  0  0.103079  0.132628  0  1.025041  0
C  C10  1  0.99999792  0.06977228  0.74999928  1  0  0.313045  0  3.660356  0  0  0.256377  0  3.922262  0  0  0.272618  0  3.934553  0  0  0.179445  0.245764  0  3.913922  0
C  C11  1  0.99999483  0.93018834  0.25000661  1  0  0.313157  0  3.660882  0  0  0.256297  0  3.923084  0  0  0.272514  0  3.93541  0  0  0.17926  0.245692  0  3.914736  0
C  C12  1  0.00000054  0.34884988  0.84737272  1  0  0.196268  0  3.637684  0  0  0.156918  0  3.887785  0  0  0.168864  0  3.902787  0  0  0.067638  0.149215  0  3.877743  0
C  C13  1  0.00000333  0.65116104  0.34739275  1  0  0.196233  0  3.636857  0  0  0.156886  0  3.887049  0  0  0.168888  0  3.901978  0  0  0.067717  0.149174  0  3.877018  0
C  C14  1  0.99999552  0.65116186  0.15262382  1  0  0.196072  0  3.637597  0  0  0.156814  0  3.887775  0  0  0.168773  0  3.902771  0  0  0.067659  0.149105  0  3.877744  0
C  C15  1  0.00000168  0.34883805  0.65260922  1  0  0.196442  0  3.637354  0  0  0.156958  0  3.887548  0  0  0.168956  0  3.902484  0  0  0.067744  0.149254  0  3.877497  0
C  C16  1  0.00000106  0.45103849  0.74999728  1  0  -0.152952  0  3.677465  0  0  -0.161451  0  3.927833  0  0  -0.173405  0  3.949438  0  0  -0.07802  -0.154083  0  3.913829  0
C  C17  1  0.00000112  0.54895068  0.24999812  1  0  -0.152606  0  3.677242  0  0  -0.1614  0  3.927525  0  0  -0.17335  0  3.949115  0  0  -0.077937  -0.153994  0  3.9135  0
N  N18  1  0.99999845  0.15814041  0.65287605  1  0  -0.349012  0  3.269253  0  0  -0.263943  0  3.522548  0  0  -0.287476  0  3.541101  0  0  -0.31903  -0.248349  0  3.50982  0
N  N19  1  0.99999826  0.84185088  0.15288043  1  0  -0.348806  0  3.269374  0  0  -0.26391  0  3.522846  0  0  -0.287431  0  3.541423  0  0  -0.318926  -0.248308  0  3.510126  0
N  N20  1  0.99999994  0.84185422  0.34712082  1  0  -0.348968  0  3.269917  0  0  -0.263926  0  3.523272  0  0  -0.287438  0  3.541842  0  0  -0.319011  -0.248321  0  3.510547  0
N  N21  1  0.99999731  0.15815225  0.84712711  1  0  -0.34893  0  3.268904  0  0  -0.264111  0  3.52249  0  0  -0.287633  0  3.541044  0  0  -0.31902  -0.248499  0  3.509747  0
Cl  Cl22  1  0.49999607  0.78718877  0.57307222  1  0  -0.532537  0  1.066043  0  0  -0.481277  0  1.364177  0  0  -0.498487  0  1.345102  0  0  -0.274644  -0.468439  0  1.377208  0
Cl  Cl23  1  0.49999924  0.21282130  0.07307008  1  0  -0.532566  0  1.06613  0  0  -0.481256  0  1.364225  0  0  -0.498378  0  1.345149  0  0  -0.274663  -0.46844  0  1.377332  0
Cl  Cl24  1  0.50000562  0.21281872  0.42692925  1  0  -0.532523  0  1.066004  0  0  -0.481277  0  1.364171  0  0  -0.498465  0  1.345102  0  0  -0.274647  -0.468446  0  1.37722  0
Cl  Cl25  1  0.50000246  0.78719753  0.92693221  1  0  -0.532606  0  1.066141  0  0  -0.481356  0  1.364322  0  0  -0.498483  0  1.345272  0  0  -0.274646  -0.468446  0  1.377274  0
