# generated using pymatgen
data_ZnSiH4C8S4N4(OF3)2
_symmetry_space_group_name_H-M   'P 1'
_cell_length_a   7.43688331
_cell_length_b   8.93105154
_cell_length_c   8.90163696
_cell_angle_alpha   100.22644644
_cell_angle_beta   90.33768351
_cell_angle_gamma   89.53371705
_symmetry_Int_Tables_number   1
_chemical_formula_structural   ZnSiH4C8S4N4(OF3)2
_chemical_formula_sum   'Zn1 Si1 H4 C8 S4 N4 O2 F6'
_cell_volume   581.82171707
_cell_formula_units_Z   1
loop_
 _symmetry_equiv_pos_site_id
 _symmetry_equiv_pos_as_xyz
  1  'x, y, z'
loop_
 _atom_site_type_symbol
 _atom_site_label
 _atom_site_symmetry_multiplicity
 _atom_site_fract_x
 _atom_site_fract_y
 _atom_site_fract_z
 _atom_site_occupancy
 _atom_site_pbe_bader_charge
 _atom_site_pbe_bader_spin_density
 _atom_site_pbe_cm5_charge
 _atom_site_pbe_ddec_charge
 _atom_site_pbe_ddec_spin_density
 _atom_site_pbe_ddec_sum_bond_order
 _atom_site_pbe_magmom
Zn  Zn0  1  0.48478371  0.48729243  0.48699342  1  1.344869  0  0.705212  0.841883  0  2.250151  0
Si  Si1  1  0.98287742  0.49845276  0.49838388  1  3.239325  0  0.261507  1.711514  0  3.963815  0
H  H2  1  0.72869679  0.36648544  0.75253613  1  0.155839  0  0.131204  0.136272  0  0.983349  0
H  H3  1  0.72980476  0.75168377  0.36752599  1  0.179186  0  0.130279  0.134926  0  0.987196  0
H  H4  1  0.15571223  0.63179169  0.28724213  1  0.682382  0  0.292134  0.388306  0  0.951403  0
H  H5  1  0.15935758  0.29250648  0.63605026  1  0.690687  0  0.291989  0.387201  0  0.953672  0
C  C6  1  0.37423229  0.56276415  0.16002874  1  1.259627  0  0.219461  0.473818  0  4.103931  0
C  C7  1  0.61680823  0.42999927  0.81230119  1  0.567226  0  0.059321  0.089102  0  3.855035  0
C  C8  1  0.57430333  0.44786395  0.96961388  1  -0.182071  0  -0.013946  -0.051765  0  4.063988  0
C  C9  1  0.42531400  0.54369031  0.00394854  1  -0.163636  0  -0.020931  -0.168908  0  4.062663  0
C  C10  1  0.37400620  0.16008182  0.56234893  1  1.258234  0  0.219218  0.475164  0  4.106185  0
C  C11  1  0.61772422  0.81187792  0.43038891  1  0.543934  0  0.058576  0.08937  0  3.85738  0
C  C12  1  0.57438517  0.96898437  0.44794057  1  -0.1839  0  -0.014485  -0.052039  0  4.06597  0
C  C13  1  0.42559749  0.00404413  0.54283089  1  -0.173432  0  -0.021487  -0.16942  0  4.065063  0
S  S14  1  0.64224050  0.38520621  0.13327303  1  0.619929  0  0.218504  0.273338  0  2.8808  0
S  S15  1  0.34333899  0.59930598  0.84384896  1  0.710435  0  0.253567  0.327249  0  2.979072  0
S  S16  1  0.64143427  0.13215627  0.38649724  1  0.609674  0  0.21402  0.267982  0  2.881137  0
S  S17  1  0.34466569  0.84501111  0.59782044  1  0.716898  0  0.250729  0.325185  0  2.982469  0
N  N18  1  0.47706221  0.48192202  0.24096199  1  -1.14993  0  -0.330224  -0.431052  0  3.314681  0
N  N19  1  0.50403150  0.50431822  0.73430824  1  -1.135046  0  -0.313841  -0.302214  0  3.406301  0
N  N20  1  0.47599822  0.24060595  0.48258840  1  -1.132966  0  -0.330701  -0.43333  0  3.306913  0
N  N21  1  0.50562786  0.73473344  0.50388139  1  -1.133162  0  -0.312921  -0.302157  0  3.401783  0
O  O22  1  0.24513142  0.66043923  0.21176922  1  -1.185193  0  -0.342099  -0.472204  0  2.300844  0
O  O23  1  0.24498295  0.21093136  0.65977714  1  -1.190662  0  -0.340777  -0.470697  0  2.303007  0
F  F24  1  0.21184935  0.54408044  0.53777435  1  -0.825636  0  -0.205995  -0.511729  0  1.385817  0
F  F25  1  0.76047985  0.44900813  0.45496751  1  -0.824586  0  -0.197398  -0.488828  0  1.387789  0
F  F26  1  0.98865330  0.38201883  0.63416471  1  -0.815654  0  -0.181974  -0.496901  0  1.225232  0
F  F27  1  0.98030016  0.61673939  0.36410945  1  -0.816472  0  -0.181291  -0.495999  0  1.224703  0
F  F28  1  0.91916626  0.64387582  0.63173444  1  -0.831302  0  -0.24555  -0.532604  0  1.096462  0
F  F29  1  0.05254597  0.35307975  0.36533616  1  -0.834592  0  -0.252097  -0.541461  0  1.088802  0
