# generated using pymatgen
data_HgH10C12N2(ClO2)2
_symmetry_space_group_name_H-M   'P 1'
_cell_length_a   3.86196157
_cell_length_b   6.29972854
_cell_length_c   14.64675216
_cell_angle_alpha   98.25112634
_cell_angle_beta   96.09465803
_cell_angle_gamma   95.60312352
_symmetry_Int_Tables_number   1
_chemical_formula_structural   HgH10C12N2(ClO2)2
_chemical_formula_sum   'Hg1 H10 C12 N2 Cl2 O4'
_cell_volume   348.34897440
_cell_formula_units_Z   1
loop_
 _symmetry_equiv_pos_site_id
 _symmetry_equiv_pos_as_xyz
  1  'x, y, z'
loop_
 _atom_site_type_symbol
 _atom_site_label
 _atom_site_symmetry_multiplicity
 _atom_site_fract_x
 _atom_site_fract_y
 _atom_site_fract_z
 _atom_site_occupancy
 _atom_site_hle17_bader_spin_density
 _atom_site_hle17_ddec_charge
 _atom_site_hle17_ddec_spin_density
 _atom_site_hle17_ddec_sum_bond_order
 _atom_site_hle17_magmom
 _atom_site_hse06_10hf_bader_spin_density
 _atom_site_hse06_10hf_ddec_charge
 _atom_site_hse06_10hf_ddec_spin_density
 _atom_site_hse06_10hf_ddec_sum_bond_order
 _atom_site_hse06_10hf_magmom
 _atom_site_hse06_bader_spin_density
 _atom_site_hse06_ddec_charge
 _atom_site_hse06_ddec_spin_density
 _atom_site_hse06_ddec_sum_bond_order
 _atom_site_hse06_magmom
 _atom_site_pbe_bader_spin_density
 _atom_site_pbe_cm5_charge
 _atom_site_pbe_ddec_charge
 _atom_site_pbe_ddec_spin_density
 _atom_site_pbe_ddec_sum_bond_order
 _atom_site_pbe_magmom
Hg  Hg0  1  0.50004547  0.00002497  0.49999850  1  0  0.745773  0  2.106917  0  0  0.59895  0  2.592476  0  0  0.651532  0  2.559257  0  0  0.495081  0.562871  0  2.614725  0
H  H1  1  0.68965957  0.52232289  0.38758959  1  0  0.085441  0  0.975862  0  0  0.08962  0  1.048925  0  0  0.09209  0  1.045955  0  0  0.096864  0.087723  0  1.051281  0
H  H2  1  0.31036181  0.47770615  0.61241428  1  0  0.08537  0  0.975928  0  0  0.089591  0  1.04897  0  0  0.092061  0  1.046004  0  0  0.096803  0.087689  0  1.051328  0
H  H3  1  0.71252887  0.31979508  0.22838737  1  0  0.116514  0  0.940127  0  0  0.125388  0  0.999047  0  0  0.128724  0  0.998484  0  0  0.107925  0.122935  0  0.999826  0
H  H4  1  0.28743851  0.68022044  0.77162311  1  0  0.116489  0  0.939778  0  0  0.125408  0  0.998682  0  0  0.128747  0  0.998122  0  0  0.107901  0.122948  0  0.999463  0
H  H5  1  0.48324418  0.48029867  0.08936897  1  0  0.109372  0  0.946861  0  0  0.116739  0  1.012591  0  0  0.120369  0  1.008754  0  0  0.108939  0.114078  0  1.015327  0
H  H6  1  0.51669535  0.51967132  0.91063188  1  0  0.109342  0  0.946968  0  0  0.116773  0  1.012635  0  0  0.120408  0  1.008797  0  0  0.108914  0.114108  0  1.01538  0
H  H7  1  0.23577212  0.01749393  0.28128675  1  0  0.084375  0  0.963617  0  0  0.086118  0  1.041338  0  0  0.089594  0  1.037237  0  0  0.105597  0.083447  0  1.04458  0
H  H8  1  0.76421673  0.98251042  0.71870657  1  0  0.084353  0  0.963444  0  0  0.086077  0  1.041268  0  0  0.089545  0  1.037168  0  0  0.105565  0.083404  0  1.044509  0
H  H9  1  0.10888812  0.85323224  0.96396165  1  0  0.397251  0  0.896949  0  0  0.366686  0  0.973749  0  0  0.379848  0  0.959857  0  0  0.304121  0.357456  0  0.983394  0
H  H10  1  0.89108728  0.14675110  0.03604028  1  0  0.39741  0  0.896666  0  0  0.366852  0  0.973464  0  0  0.380006  0  0.959591  0  0  0.304208  0.357637  0  0.983084  0
C  C11  1  0.59078749  0.58498328  0.32543059  1  0  0.159705  0  3.65377  0  0  0.123853  0  3.910175  0  0  0.133473  0  3.927458  0  0  0.058099  0.117731  0  3.898286  0
C  C12  1  0.40923224  0.41501829  0.67456612  1  0  0.159755  0  3.653913  0  0  0.123787  0  3.910365  0  0  0.133418  0  3.927625  0  0  0.058101  0.117659  0  3.898474  0
C  C13  1  0.60288468  0.47326055  0.23647996  1  0  -0.115183  0  3.695594  0  0  -0.124961  0  3.950668  0  0  -0.134097  0  3.972108  0  0  -0.0819  -0.119237  0  3.936382  0
C  C14  1  0.39710950  0.52672627  0.76352338  1  0  -0.115088  0  3.69474  0  0  -0.124872  0  3.949869  0  0  -0.13401  0  3.971308  0  0  -0.081793  -0.119153  0  3.9356  0
C  C15  1  0.47704756  0.56262101  0.15975182  1  0  -0.000565  0  3.669492  0  0  -0.034472  0  3.922593  0  0  -0.027661  0  3.939285  0  0  -0.06172  -0.038394  0  3.910904  0
C  C16  1  0.52294289  0.43735776  0.84025707  1  0  -0.000608  0  3.669382  0  0  -0.034631  0  3.922532  0  0  -0.027829  0  3.939243  0  0  -0.061744  -0.038555  0  3.910837  0
C  C17  1  0.34182483  0.76187754  0.17469027  1  0  -0.15037  0  3.785808  0  0  -0.124443  0  4.025881  0  0  -0.139962  0  4.051803  0  0  -0.021728  -0.114481  0  4.008442  0
C  C18  1  0.65817256  0.23811407  0.82530593  1  0  -0.150225  0  3.786071  0  0  -0.124236  0  4.026147  0  0  -0.139758  0  4.05207  0  0  -0.021666  -0.114275  0  4.008702  0
C  C19  1  0.19644388  0.86837704  0.09801927  1  0  0.670405  0  3.80491  0  0  0.614596  0  4.107267  0  0  0.649602  0  4.09859  0  0  0.238533  0.590864  0  4.112656  0
C  C20  1  0.80352248  0.13163348  0.90197518  1  0  0.670238  0  3.8048  0  0  0.614317  0  4.107289  0  0  0.64933  0  4.098609  0  0  0.238344  0.590585  0  4.112671  0
C  C21  1  0.33989244  0.86291155  0.26622449  1  0  0.13566  0  3.676385  0  0  0.093963  0  3.927518  0  0  0.103796  0  3.94566  0  0  0.056862  0.087699  0  3.915226  0
C  C22  1  0.66011120  0.13710429  0.73377128  1  0  0.135761  0  3.676607  0  0  0.093952  0  3.927789  0  0  0.103794  0  3.945925  0  0  0.056927  0.087688  0  3.915486  0
N  N23  1  0.46162163  0.77597810  0.33943436  1  0  -0.295853  0  3.219482  0  0  -0.223044  0  3.48309  0  0  -0.2457  0  3.505519  0  0  -0.304869  -0.207735  0  3.467399  0
N  N24  1  0.53840145  0.22404454  0.66057259  1  0  -0.295866  0  3.220095  0  0  -0.222941  0  3.483689  0  0  -0.245597  0  3.506122  0  0  -0.304836  -0.207629  0  3.467988  0
Cl  Cl25  1  0.91507213  0.76305049  0.56490718  1  0  -0.458028  0  1.07246  0  0  -0.402853  0  1.371616  0  0  -0.422763  0  1.353541  0  0  -0.251663  -0.388937  0  1.384151  0
Cl  Cl26  1  0.08498819  0.23697894  0.43508615  1  0  -0.45802  0  1.072553  0  0  -0.402856  0  1.371726  0  0  -0.422774  0  1.35367  0  0  -0.251611  -0.388945  0  1.38427  0
O  O27  1  0.05425513  0.03789138  0.11353499  1  0  -0.572691  0  2.003733  0  0  -0.519417  0  2.223333  0  0  -0.543194  0  2.21549  0  0  -0.282465  -0.503062  0  2.22842  0
O  O28  1  0.94576185  0.96207473  0.88646157  1  0  -0.572838  0  2.003084  0  0  -0.519403  0  2.222589  0  0  -0.543192  0  2.214743  0  0  -0.282435  -0.503036  0  2.227675  0
O  O29  1  0.22602651  0.77126384  0.01343868  1  0  -0.53893  0  2.094795  0  0  -0.487278  0  2.315425  0  0  -0.509912  0  2.300692  0  0  -0.320193  -0.471544  0  2.32512  0
O  O30  1  0.77393924  0.22870803  0.98655616  1  0  -0.538951  0  2.094925  0  0  -0.487262  0  2.315593  0  0  -0.50989  0  2.300862  0  0  -0.320161  -0.471542  0  2.325282  0
