# generated using pymatgen
data_ZnH5C8O5
_symmetry_space_group_name_H-M   'P 1'
_cell_length_a   4.77219405
_cell_length_b   6.74771897
_cell_length_c   11.98105448
_cell_angle_alpha   85.04876601
_cell_angle_beta   87.38221239
_cell_angle_gamma   83.48325819
_symmetry_Int_Tables_number   1
_chemical_formula_structural   ZnH5C8O5
_chemical_formula_sum   'Zn2 H10 C16 O10'
_cell_volume   381.63294637
_cell_formula_units_Z   2
loop_
 _symmetry_equiv_pos_site_id
 _symmetry_equiv_pos_as_xyz
  1  'x, y, z'
loop_
 _atom_site_type_symbol
 _atom_site_label
 _atom_site_symmetry_multiplicity
 _atom_site_fract_x
 _atom_site_fract_y
 _atom_site_fract_z
 _atom_site_occupancy
 _atom_site_pbe_bader_spin_density
 _atom_site_pbe_cm5_charge
 _atom_site_pbe_ddec_charge
 _atom_site_pbe_ddec_spin_density
 _atom_site_pbe_ddec_sum_bond_order
 _atom_site_pbe_magmom
Zn  Zn0  1  0.44025939  0.73783265  0.86346587  1  0  0.701786  0.991783  0  2.211488  0
Zn  Zn1  1  0.55974029  0.26216637  0.13653512  1  0  0.701767  0.991772  0  2.211486  0
H  H2  1  0.92234420  0.97289313  0.60903326  1  0  0.103195  0.101848  0  1.025472  0
H  H3  1  0.07765971  0.02710593  0.39096599  1  0  0.103211  0.101878  0  1.025464  0
H  H4  1  0.61123568  0.15667019  0.46891614  1  0  0.102718  0.104796  0  1.032643  0
H  H5  1  0.38877036  0.84332889  0.53108141  1  0  0.102703  0.104754  0  1.03269  0
H  H6  1  0.64978606  0.69722006  0.63348807  1  0  0.104186  0.099303  0  1.046352  0
H  H7  1  0.35021602  0.30277750  0.36651045  1  0  0.104184  0.099293  0  1.046355  0
H  H8  1  0.56668946  0.79316839  0.06220522  1  0  0.303439  0.402761  0  0.923298  0
H  H9  1  0.43331627  0.20683215  0.93779560  1  0  0.303449  0.402787  0  0.923246  0
H  H10  1  0.21766479  0.79500519  0.06161703  1  0  0.296914  0.402183  0  0.9305  0
H  H11  1  0.78234253  0.20499835  0.93838447  1  0  0.296914  0.402168  0  0.93054  0
C  C12  1  0.13912612  0.10451585  0.78674041  1  0  0.217672  0.591684  0  4.183855  0
C  C13  1  0.86087409  0.89548019  0.21325904  1  0  0.217711  0.591788  0  4.183744  0
C  C14  1  0.96450621  0.22724354  0.69997945  1  0  -0.010442  -0.047553  0  3.925301  0
C  C15  1  0.03548901  0.77275694  0.30002321  1  0  -0.010511  -0.047692  0  3.925472  0
C  C16  1  0.86273984  0.13279080  0.61315227  1  0  -0.082085  -0.077384  0  3.971825  0
C  C17  1  0.13725800  0.86720671  0.38684881  1  0  -0.082089  -0.077421  0  3.971953  0
C  C18  1  0.68387923  0.23775627  0.53480500  1  0  -0.081195  -0.116078  0  3.934067  0
C  C19  1  0.31611838  0.76224275  0.46519519  1  0  -0.081166  -0.11597  0  3.934111  0
C  C20  1  0.59821412  0.44330371  0.54033172  1  0  0.001617  0.082229  0  3.957416  0
C  C21  1  0.40178163  0.55669380  0.45966856  1  0  0.001608  0.08218  0  3.957462  0
C  C22  1  0.70595995  0.53771360  0.62652068  1  0  -0.078064  -0.131337  0  3.936353  0
C  C23  1  0.29403741  0.46228692  0.37347944  1  0  -0.078069  -0.131318  0  3.936378  0
C  C24  1  0.88453339  0.43362147  0.70571234  1  0  -0.007104  -0.04242  0  3.951209  0
C  C25  1  0.11546002  0.56637753  0.29428791  1  0  -0.007118  -0.042465  0  3.951281  0
C  C26  1  0.00527059  0.55226799  0.78800720  1  0  0.227208  0.608261  0  4.145034  0
C  C27  1  0.99471790  0.44773547  0.21199292  1  0  0.227252  0.608363  0  4.145029  0
O  O28  1  0.31470496  0.96235589  0.75219388  1  0  -0.316727  -0.566155  0  2.343932  0
O  O29  1  0.68529240  0.03764462  0.24780624  1  0  -0.316755  -0.566193  0  2.34386  0
O  O30  1  0.10464761  0.14100260  0.88908579  1  0  -0.304828  -0.562461  0  2.241327  0
O  O31  1  0.89535601  0.85899793  0.11091591  1  0  -0.304775  -0.562441  0  2.241306  0
O  O32  1  0.27093161  0.52156590  0.79865761  1  0  -0.299449  -0.530712  0  2.388246  0
O  O33  1  0.72907182  0.47843615  0.20134068  1  0  -0.299433  -0.53065  0  2.388328  0
O  O34  1  0.85341843  0.68745062  0.83854516  1  0  -0.315551  -0.55414  0  2.336176  0
O  O35  1  0.14658315  0.31254993  0.16145323  1  0  -0.315577  -0.554234  0  2.336071  0
O  O36  1  0.40609151  0.74427491  0.02684811  1  0  -0.563297  -0.756596  0  2.204062  0
O  O37  1  0.59391397  0.25572713  0.97315265  1  0  -0.563302  -0.756613  0  2.204024  0
