# generated using pymatgen
data_SrCuH4(CO2)4
_symmetry_space_group_name_H-M   'P 1'
_cell_length_a   6.76385708
_cell_length_b   7.41353288
_cell_length_c   8.55028005
_cell_angle_alpha   90.00003917
_cell_angle_beta   89.99987132
_cell_angle_gamma   96.94675784
_symmetry_Int_Tables_number   1
_chemical_formula_structural   SrCuH4(CO2)4
_chemical_formula_sum   'Sr2 Cu2 H8 C8 O16'
_cell_volume   425.59846390
_cell_formula_units_Z   2
loop_
 _symmetry_equiv_pos_site_id
 _symmetry_equiv_pos_as_xyz
  1  'x, y, z'
loop_
 _atom_site_type_symbol
 _atom_site_label
 _atom_site_symmetry_multiplicity
 _atom_site_fract_x
 _atom_site_fract_y
 _atom_site_fract_z
 _atom_site_occupancy
 _atom_site_hle17_ddec_charge
 _atom_site_hle17_ddec_spin_density
 _atom_site_hle17_ddec_sum_bond_order
 _atom_site_hle17_magmom
 _atom_site_hse06_10hf_ddec_charge
 _atom_site_hse06_10hf_ddec_spin_density
 _atom_site_hse06_10hf_ddec_sum_bond_order
 _atom_site_hse06_10hf_magmom
 _atom_site_hse06_ddec_charge
 _atom_site_hse06_ddec_spin_density
 _atom_site_hse06_ddec_sum_bond_order
 _atom_site_hse06_magmom
 _atom_site_pbe_cm5_charge
 _atom_site_pbe_ddec_charge
 _atom_site_pbe_ddec_spin_density
 _atom_site_pbe_ddec_sum_bond_order
 _atom_site_pbe_magmom
Sr  Sr0  1  0.24999855  0.00000026  0.13541523  1  1.614944  -0.000767  1.163401  0.0  1.471968  -0.000976  1.547477  -0.001  1.513854  -0.000675  1.49864  0.0  0.994686  1.440804  -0.001212  1.58236  -0.001
Sr  Sr1  1  0.75000090  0.00000087  0.86456868  1  1.615074  0.000731  1.162749  0.0  1.4721  0.000986  1.546796  0.001  1.513985  0.000675  1.49797  0.0  0.994466  1.440932  0.001219  1.581683  0.001
Cu  Cu2  1  0.25000097  0.50000194  0.40777722  1  1.018414  -0.728418  1.656685  -0.522  1.03321  -0.824106  2.031779  -0.652  1.116501  -0.896602  1.981539  -0.741  0.720394  0.962293  -0.765413  2.096692  -0.589
Cu  Cu3  1  0.74999929  0.49999972  0.59221284  1  1.018292  0.7285  1.656836  0.522  1.029027  0.824124  2.039751  0.652  1.116577  0.89664  1.981388  0.741  0.720391  0.962719  0.765474  2.095983  0.589
H  H4  1  0.92256231  0.44715450  0.16424891  1  0.025502  -0.000181  0.902469  0.0  0.035454  -0.000112  0.96772  0.0  0.03563  -2.6e-05  0.963101  0.0  0.123703  0.035009  -0.000171  0.971095  0.0
H  H5  1  0.57743913  0.55284609  0.16425042  1  0.02553  -0.00018  0.902402  0.0  0.035482  -0.000112  0.967654  0.0  0.035658  -2.6e-05  0.963037  0.0  0.123691  0.03504  -0.000171  0.971025  0.0
H  H6  1  0.07742873  0.55281184  0.83573530  1  0.025798  0.000182  0.901687  0.0  0.035826  0.000113  0.966789  0.0  0.035988  2.5e-05  0.962254  0.0  0.12369  0.035354  0.000172  0.970212  0.0
H  H7  1  0.42257293  0.44718817  0.83573496  1  0.025818  0.000182  0.901695  0.0  0.03579  0.000113  0.966854  0.0  0.035952  2.6e-05  0.962318  0.0  0.123673  0.035318  0.000172  0.970277  0.0
H  H8  1  0.77533299  0.15781437  0.44853789  1  0.013516  0.000651  0.946315  0.001  0.019357  0.000302  1.022294  0.001  0.019324  8.9e-05  1.017548  0.0  0.119155  0.01917  0.000486  1.025693  0.001
H  H9  1  0.72466563  0.84218228  0.44854048  1  0.013488  0.000649  0.946325  0.001  0.019331  0.000302  1.022315  0.001  0.019298  8.9e-05  1.017567  0.0  0.119161  0.019141  0.000486  1.025717  0.001
H  H10  1  0.22468647  0.84219812  0.55149778  1  0.013519  -0.00064  0.947301  -0.001  0.019274  -0.000298  1.023435  -0.001  0.019271  -8.7e-05  1.018546  0.0  0.119362  0.019147  -0.000481  1.026663  -0.001
H  H11  1  0.27531746  0.15780175  0.55149636  1  0.013541  -0.000644  0.947283  -0.001  0.019285  -0.000298  1.023423  -0.001  0.019285  -8.6e-05  1.018533  0.0  0.11937  0.019159  -0.000481  1.026651  -0.001
C  C12  1  0.00883857  0.33030650  0.15126648  1  0.612819  0.003449  3.858464  0.005  0.546733  0.000527  4.162227  0.002  0.583413  0.000584  4.152258  0.002  0.168771  0.52202  0.000453  4.167039  0.002
C  C13  1  0.49116112  0.66969727  0.15126733  1  0.612693  0.003448  3.858541  0.005  0.546594  0.000527  4.162329  0.002  0.58327  0.000585  4.152365  0.002  0.168732  0.521874  0.000453  4.167138  0.002
C  C14  1  0.99113079  0.66975096  0.84874229  1  0.612107  -0.003452  3.856774  -0.005  0.546145  -0.000528  4.160088  -0.002  0.582741  -0.000587  4.150491  -0.002  0.168583  0.521357  -0.000454  4.165278  -0.002
C  C15  1  0.50886872  0.33024995  0.84874261  1  0.612178  -0.00345  3.856799  -0.005  0.546256  -0.000528  4.160089  -0.002  0.582853  -0.000586  4.150492  -0.002  0.168652  0.521474  -0.000454  4.165279  -0.002
C  C16  1  0.63480642  0.19621251  0.39935718  1  0.598895  -0.005425  3.876374  -0.008  0.535467  -0.000842  4.193419  -0.003  0.573226  -0.000928  4.183452  -0.003  0.158149  0.509705  -0.000647  4.198275  -0.003
C  C17  1  0.86519270  0.80378684  0.39935833  1  0.598995  -0.005416  3.876218  -0.008  0.535551  -0.000843  4.193278  -0.003  0.573309  -0.000928  4.183313  -0.003  0.158182  0.509789  -0.000648  4.198133  -0.003
C  C18  1  0.36509867  0.80381792  0.60062469  1  0.59929  0.005408  3.877092  0.008  0.535735  0.000841  4.194483  0.003  0.573579  0.000927  4.184159  0.003  0.158115  0.510054  0.000647  4.198991  0.003
C  C19  1  0.13490106  0.19618470  0.60062354  1  0.599229  0.005429  3.877145  0.008  0.535693  0.000841  4.194514  0.003  0.573536  0.000926  4.184186  0.003  0.158115  0.510016  0.000647  4.199029  0.003
O  O20  1  0.15568811  0.32063566  0.24429020  1  -0.641277  -0.059644  2.173023  -0.079  -0.597723  -0.04284  2.468242  -0.062  -0.636286  -0.034059  2.455681  -0.052  -0.347627  -0.569005  -0.04783  2.476833  -0.067
O  O21  1  0.34431132  0.67936816  0.24429014  1  -0.641191  -0.059642  2.1731  -0.079  -0.597622  -0.042839  2.468309  -0.062  -0.636185  -0.03406  2.45575  -0.052  -0.347571  -0.568902  -0.047832  2.476888  -0.067
O  O22  1  0.84424617  0.67939198  0.75569635  1  -0.641041  0.059648  2.172736  0.079  -0.596902  0.042842  2.468499  0.062  -0.636189  0.03406  2.455548  0.052  -0.347515  -0.568968  0.047831  2.476594  0.067
O  O23  1  0.65575490  0.32060752  0.75569757  1  -0.641089  0.059647  2.172736  0.079  -0.59695  0.042842  2.46848  0.062  -0.636237  0.034059  2.455527  0.052  -0.347543  -0.56901  0.047829  2.476565  0.067
O  O24  1  0.96269549  0.21189265  0.04768538  1  -0.682156  -0.007702  2.019463  -0.01  -0.61608  -0.004616  2.268995  -0.006  -0.643768  -0.002645  2.257887  -0.004  -0.378777  -0.596701  -0.006402  2.276214  -0.008
O  O25  1  0.53730628  0.78810788  0.04768475  1  -0.682141  -0.007701  2.019496  -0.01  -0.616059  -0.004616  2.269031  -0.006  -0.643744  -0.002646  2.257925  -0.004  -0.378802  -0.596682  -0.006402  2.276249  -0.008
O  O26  1  0.03736442  0.78814557  0.95235263  1  -0.681913  0.007686  2.018645  0.01  -0.615865  0.004608  2.268203  0.006  -0.643547  0.002645  2.257102  0.004  -0.378666  -0.596501  0.00639  2.275429  0.008
O  O27  1  0.46263691  0.21185450  0.95235326  1  -0.681932  0.007686  2.018656  0.01  -0.615885  0.004608  2.268186  0.006  -0.643567  0.002644  2.257083  0.004  -0.378671  -0.596519  0.00639  2.275414  0.008
O  O28  1  0.52860316  0.08429617  0.31668042  1  -0.632831  0.013335  2.018667  0.017  -0.577213  0.006721  2.274021  0.009  -0.605611  0.003535  2.264284  0.005  -0.374084  -0.556874  0.009924  2.280063  0.013
O  O29  1  0.97139601  0.91570177  0.31668144  1  -0.632855  0.013331  2.018595  0.017  -0.577232  0.006721  2.273958  0.009  -0.60563  0.003536  2.26422  0.005  -0.374104  -0.556895  0.009923  2.279999  0.013
O  O30  1  0.47133488  0.91562815  0.68330964  1  -0.632879  -0.013353  2.018853  -0.017  -0.577246  -0.00673  2.27429  -0.009  -0.605647  -0.00354  2.264518  -0.005  -0.373986  -0.556926  -0.009942  2.280321  -0.013
O  O31  1  0.02866720  0.08437178  0.68330978  1  -0.632866  -0.013361  2.018777  -0.017  -0.577228  -0.00673  2.27419  -0.009  -0.605628  -0.003541  2.264421  -0.005  -0.373981  -0.556905  -0.009941  2.280223  -0.013
O  O32  1  0.59238848  0.35690376  0.43180650  1  -0.611158  0.095639  2.140284  0.125  -0.597759  0.059116  2.461944  0.085  -0.641135  0.044509  2.448257  0.067  -0.326768  -0.564969  0.068297  2.469885  0.094
O  O33  1  0.90761184  0.64309424  0.43180747  1  -0.61118  0.095642  2.140169  0.125  -0.59779  0.059118  2.461855  0.085  -0.64116  0.044509  2.448159  0.067  -0.32678  -0.564999  0.068301  2.469794  0.094
O  O34  1  0.40755613  0.64314561  0.56817888  1  -0.611577  -0.095634  2.140028  -0.125  -0.598376  -0.059121  2.461482  -0.085  -0.641463  -0.044521  2.447957  -0.067  -0.327081  -0.565269  -0.068311  2.469666  -0.094
O  O35  1  0.09244664  0.35685699  0.56817791  1  -0.611553  -0.095633  2.140204  -0.125  -0.598349  -0.059119  2.461633  -0.085  -0.641454  -0.044519  2.448147  -0.067  -0.327084  -0.565252  -0.068304  2.469836  -0.094
