# generated using pymatgen
data_CrH5C8O5
_symmetry_space_group_name_H-M   'P 1'
_cell_length_a   6.83880769
_cell_length_b   6.28405446
_cell_length_c   10.44747773
_cell_angle_alpha   108.95317457
_cell_angle_beta   102.92058301
_cell_angle_gamma   87.78071338
_symmetry_Int_Tables_number   1
_chemical_formula_structural   CrH5C8O5
_chemical_formula_sum   'Cr2 H10 C16 O10'
_cell_volume   413.61140888
_cell_formula_units_Z   2
loop_
 _symmetry_equiv_pos_site_id
 _symmetry_equiv_pos_as_xyz
  1  'x, y, z'
loop_
 _atom_site_type_symbol
 _atom_site_label
 _atom_site_symmetry_multiplicity
 _atom_site_fract_x
 _atom_site_fract_y
 _atom_site_fract_z
 _atom_site_occupancy
 _atom_site_pbe_bader_charge
 _atom_site_pbe_bader_spin_density
 _atom_site_pbe_cm5_charge
 _atom_site_pbe_ddec_charge
 _atom_site_pbe_ddec_spin_density
 _atom_site_pbe_ddec_sum_bond_order
 _atom_site_pbe_magmom
Cr  Cr0  1  0.00001797  0.99997225  0.99998480  1  1.808348  2.767405  1.027557  1.544934  2.859715  2.653771  2.797
Cr  Cr1  1  0.50001312  0.00000994  0.00000067  1  1.804236  2.777898  1.026549  1.546318  2.869648  2.645912  2.808
H  H2  1  0.20219461  0.82827541  0.32440417  1  0.093051  0.000419  0.107819  0.113281  1e-05  1.002685  0.0
H  H3  1  0.63903873  0.06813567  0.42248065  1  0.096705  4.3e-05  0.105226  0.109052  -0.000224  1.019459  0.0
H  H4  1  0.31757257  0.50014975  0.68123344  1  0.108762  0.000384  0.110629  0.123177  -4.6e-05  0.988546  0.0
H  H5  1  0.85377867  0.64719573  0.57103534  1  0.107238  4e-05  0.106077  0.1123  -0.000202  1.015012  0.0
H  H6  1  0.79782660  0.17171482  0.67558535  1  0.093241  0.000419  0.107893  0.113482  1e-05  1.002487  0.0
H  H7  1  0.36100167  0.93184179  0.57750841  1  0.096865  4.3e-05  0.105181  0.108988  -0.000224  1.019355  0.0
H  H8  1  0.68238466  0.49984651  0.31878627  1  0.108571  0.000383  0.110552  0.123033  -4.7e-05  0.988609  0.0
H  H9  1  0.14613492  0.35280764  0.42897202  1  0.107286  3.9e-05  0.105949  0.112108  -0.000202  1.014734  0.0
H  H10  1  0.72748369  0.26752505  0.95647549  1  0.622426  0.008513  0.320235  0.430031  0.004147  0.854074  0.008
H  H11  1  0.27249591  0.73251317  0.04353924  1  0.622135  0.00852  0.320282  0.430022  0.00415  0.854108  0.008
C  C12  1  0.91100749  0.94029960  0.35817494  1  -0.076037  -0.001292  -0.008344  -0.035803  -0.002788  3.941241  -0.003
C  C13  1  0.11462637  0.90212500  0.40205510  1  -0.033566  0.003201  -0.077009  -0.085848  0.002198  3.960313  0.002
C  C14  1  0.79669653  0.03811892  0.45720622  1  0.024557  0.003913  -0.078294  -0.088589  0.002814  3.967245  0.002
C  C15  1  0.82368008  0.90110292  0.20797128  1  1.549152  0.023589  0.240851  0.638806  0.020136  4.084609  0.021
C  C16  1  0.59584595  0.58043023  0.64039988  1  -0.056443  -0.001246  -0.011987  -0.037511  -0.002689  3.952156  -0.003
C  C17  1  0.39629807  0.49713102  0.60086498  1  -0.066001  0.002872  -0.076299  -0.086031  0.001908  3.944537  0.001
C  C18  1  0.69920797  0.58225247  0.53885309  1  0.033805  0.003406  -0.079612  -0.09238  0.00245  3.967313  0.002
C  C19  1  0.68855248  0.68917789  0.79060572  1  1.53348  0.020731  0.230429  0.613131  0.017638  4.1368  0.018
C  C20  1  0.08901346  0.05965360  0.64178496  1  -0.07542  -0.001295  -0.008259  -0.035749  -0.002792  3.941066  -0.003
C  C21  1  0.88538164  0.09785937  0.59791252  1  -0.033232  0.003197  -0.077279  -0.0864  0.002195  3.960348  0.002
C  C22  1  0.20333998  0.96185037  0.54276202  1  0.023757  0.003914  -0.078094  -0.088332  0.002816  3.96725  0.002
C  C23  1  0.17635777  0.09892841  0.79203356  1  1.548565  0.023626  0.240881  0.638838  0.020165  4.083748  0.021
C  C24  1  0.40415025  0.41952846  0.35957513  1  -0.056486  -0.001238  -0.012077  -0.037629  -0.002683  3.951564  -0.003
C  C25  1  0.60368446  0.50288139  0.39917227  1  -0.065473  0.002875  -0.076235  -0.085826  0.001911  3.944574  0.001
C  C26  1  0.30078123  0.41776743  0.46118331  1  0.033826  0.003401  -0.079492  -0.092375  0.002446  3.965903  0.002
C  C27  1  0.31141639  0.31087419  0.20940451  1  1.534845  0.020672  0.230403  0.61333  0.017588  4.137613  0.018
O  O28  1  0.94262547  0.84187639  0.12478650  1  -1.14489  0.038132  -0.333893  -0.597371  0.023421  2.339812  0.006
O  O29  1  0.63787854  0.93931392  0.17329096  1  -1.140507  0.014486  -0.31706  -0.569163  0.000852  2.329964  -0.016
O  O30  1  0.57617188  0.70949048  0.87657068  1  -1.155165  0.037275  -0.33766  -0.599965  0.023399  2.353508  0.007
O  O31  1  0.87001126  0.76288582  0.82298110  1  -1.135651  0.008523  -0.31433  -0.559223  -0.004315  2.343647  -0.019
O  O32  1  0.05738423  0.15811444  0.87520945  1  -1.144728  0.038154  -0.333959  -0.597396  0.023427  2.339586  0.006
O  O33  1  0.36215927  0.06067167  0.82671278  1  -1.140047  0.014501  -0.317097  -0.569308  0.000854  2.330065  -0.016
O  O34  1  0.42380411  0.29051421  0.12346875  1  -1.156365  0.037265  -0.337554  -0.599988  0.023391  2.35395  0.007
O  O35  1  0.12998844  0.23712442  0.17700771  1  -1.13585  0.008533  -0.314356  -0.55929  -0.004312  2.343602  -0.019
O  O36  1  0.25349120  0.84353697  0.99541238  1  -1.167432  0.064407  -0.613848  -0.933302  0.04665  2.139019  0.002
O  O37  1  0.74650998  0.15649298  0.00459984  1  -1.167557  0.064294  -0.613776  -0.933349  0.046586  2.138554  0.002
