# generated using pymatgen
data_CuSiH8C8(N2F3)2
_symmetry_space_group_name_H-M   'P 1'
_cell_length_a   6.89813367
_cell_length_b   6.89799207
_cell_length_c   7.91152880
_cell_angle_alpha   89.99998140
_cell_angle_beta   89.99960512
_cell_angle_gamma   90.00008156
_symmetry_Int_Tables_number   1
_chemical_formula_structural   CuSiH8C8(N2F3)2
_chemical_formula_sum   'Cu1 Si1 H8 C8 N4 F6'
_cell_volume   376.45642158
_cell_formula_units_Z   1
loop_
 _symmetry_equiv_pos_site_id
 _symmetry_equiv_pos_as_xyz
  1  'x, y, z'
loop_
 _atom_site_type_symbol
 _atom_site_label
 _atom_site_symmetry_multiplicity
 _atom_site_fract_x
 _atom_site_fract_y
 _atom_site_fract_z
 _atom_site_occupancy
 _atom_site_pbe_bader_charge
 _atom_site_pbe_bader_spin_density
 _atom_site_pbe_cm5_charge
 _atom_site_pbe_ddec_charge
 _atom_site_pbe_ddec_spin_density
 _atom_site_pbe_ddec_sum_bond_order
 _atom_site_pbe_magmom
Cu  Cu0  1  0.49999884  0.50000084  0.50000040  1  1.051923  -0.066084  0.753181  0.658237  -0.082475  2.303061  -0.066
Si  Si1  1  0.50000267  0.50000075  0.99999984  1  3.176469  2.1e-05  0.24581  1.718162  4.4e-05  3.973699  0.0
H  H2  1  0.49999821  0.18102401  0.23529054  1  0.191121  -0.000447  0.132482  0.129981  -0.000218  1.023531  0.0
H  H3  1  0.81898617  0.49999822  0.23530344  1  0.19107  -0.00045  0.132394  0.129868  -0.00022  1.024044  0.0
H  H4  1  0.50000011  0.81897922  0.23529171  1  0.191137  -0.000447  0.132482  0.130046  -0.000218  1.02361  0.0
H  H5  1  0.18101071  0.49999776  0.23530409  1  0.191058  -0.00045  0.132377  0.129811  -0.000219  1.024189  0.0
H  H6  1  0.50000092  0.81897912  0.76470772  1  0.191147  -0.000447  0.132454  0.129978  -0.000218  1.023553  0.0
H  H7  1  0.81898698  0.49999812  0.76469796  1  0.191032  -0.00045  0.132374  0.129809  -0.000219  1.024232  0.0
H  H8  1  0.49999902  0.18102101  0.76470529  1  0.191135  -0.000447  0.132482  0.130025  -0.000218  1.023706  0.0
H  H9  1  0.18101296  0.49999912  0.76469862  1  0.191064  -0.00045  0.132383  0.129853  -0.00022  1.024008  0.0
C  C10  1  0.49999913  0.10119496  0.35414622  1  0.584946  -0.000556  0.073039  0.067446  -0.00038  3.826521  -0.001
C  C11  1  0.89879279  0.49999825  0.35413105  1  0.584527  -0.000562  0.073091  0.067476  -0.000384  3.826406  -0.001
C  C12  1  0.49999970  0.89880678  0.35414357  1  0.419174  -0.000632  0.073077  0.067403  -0.000379  3.826478  -0.001
C  C13  1  0.10120169  0.49999913  0.35412081  1  0.418796  -0.000639  0.073069  0.067593  -0.000384  3.825935  -0.001
C  C14  1  0.50000000  0.89880672  0.64585457  1  0.420226  -0.00063  0.073054  0.067447  -0.000379  3.826466  -0.001
C  C15  1  0.89879889  0.49999820  0.64588250  1  0.419946  -0.000638  0.073088  0.067619  -0.000384  3.826002  -0.001
C  C16  1  0.49999943  0.10119490  0.64585722  1  0.584611  -0.000556  0.073045  0.067405  -0.00038  3.826451  -0.001
C  C17  1  0.10120344  0.49999908  0.64587100  1  0.584497  -0.000561  0.073092  0.067482  -0.000384  3.826423  -0.001
N  N18  1  0.50000008  0.20101528  0.49999538  1  -1.203033  -0.009193  -0.311533  -0.179705  -0.006025  3.577523  -0.008
N  N19  1  0.79897826  0.49999960  0.49999191  1  -1.202353  -0.009208  -0.311482  -0.179683  -0.006034  3.576933  -0.008
N  N20  1  0.49999905  0.79898495  0.49999909  1  -1.203168  -0.009193  -0.311539  -0.179706  -0.006025  3.577623  -0.008
N  N21  1  0.20101942  0.49999918  0.50000888  1  -1.202348  -0.009208  -0.311418  -0.179591  -0.006034  3.576969  -0.008
F  F22  1  0.50000140  0.50000089  0.21987628  1  -0.832846  0.000151  -0.209844  -0.542522  0.00019  1.360649  0.0
F  F23  1  0.50000063  0.50000079  0.78012325  1  -0.832859  0.000151  -0.209859  -0.542525  0.00019  1.360635  0.0
F  F24  1  0.32513600  0.32513398  0.00000150  1  -0.824208  -4.7e-05  -0.244325  -0.53798  -3.4e-05  1.067316  0.0
F  F25  1  0.67486723  0.32513404  0.99999934  1  -0.824325  -4.7e-05  -0.244319  -0.537983  -3.4e-05  1.06739  0.0
F  F26  1  0.67486748  0.67486770  0.99999929  1  -0.82443  -4.7e-05  -0.244321  -0.53797  -3.4e-05  1.067385  0.0
F  F27  1  0.32513665  0.67486890  0.99999908  1  -0.824312  -4.7e-05  -0.244334  -0.537976  -3.4e-05  1.067332  0.0
