# generated using pymatgen
data_CuH9C13BrN
_symmetry_space_group_name_H-M   'P 1'
_cell_length_a   3.86003892
_cell_length_b   8.48077499
_cell_length_c   8.73098950
_cell_angle_alpha   67.47782459
_cell_angle_beta   86.67171597
_cell_angle_gamma   79.62394506
_symmetry_Int_Tables_number   1
_chemical_formula_structural   CuH9C13BrN
_chemical_formula_sum   'Cu1 H9 C13 Br1 N1'
_cell_volume   259.68336787
_cell_formula_units_Z   1
loop_
 _symmetry_equiv_pos_site_id
 _symmetry_equiv_pos_as_xyz
  1  'x, y, z'
loop_
 _atom_site_type_symbol
 _atom_site_label
 _atom_site_symmetry_multiplicity
 _atom_site_fract_x
 _atom_site_fract_y
 _atom_site_fract_z
 _atom_site_occupancy
 _atom_site_pbe_bader_spin_density
 _atom_site_pbe_cm5_charge
 _atom_site_pbe_ddec_charge
 _atom_site_pbe_ddec_spin_density
 _atom_site_pbe_ddec_sum_bond_order
 _atom_site_pbe_magmom
Cu  Cu0  1  0.95308387  0.14827683  0.35561526  1  0  0.3456  0.312978  0  2.369789  0
H  H1  1  0.74465893  0.09051890  0.12125285  1  0  0.090423  0.089237  0  1.075358  0
H  H2  1  0.60198358  0.07154176  0.85483877  1  0  0.098325  0.097002  0  1.024727  0
H  H3  1  0.64253988  0.31565340  0.58790772  1  0  0.090219  0.085579  0  1.059387  0
H  H4  1  0.83488077  0.58357581  0.58402087  1  0  0.09763  0.098975  0  1.038733  0
H  H5  1  0.05304250  0.74121297  0.73507685  1  0  0.096158  0.115377  0  1.020569  0
H  H6  1  0.13248473  0.39129969  0.41945688  1  0  0.091356  0.092267  0  1.074606  0
H  H7  1  0.32392489  0.65372426  0.42654095  1  0  0.097194  0.094343  0  1.02863  0
H  H8  1  0.38109120  0.90420272  0.16716123  1  0  0.09496  0.093883  0  1.037782  0
H  H9  1  0.24859995  0.89463590  0.89364089  1  0  0.097709  0.098796  0  1.032608  0
C  C10  1  0.88110703  0.34549631  0.00484744  1  0  0.108968  0.203444  0  3.97132  0
C  C11  1  0.76612684  0.19669539  0.00256215  1  0  -0.095348  -0.169472  0  3.965672  0
C  C12  1  0.68648908  0.18710022  0.85524807  1  0  -0.082236  -0.044761  0  3.97303  0
C  C13  1  0.71128109  0.32682132  0.70225882  1  0  -0.094305  -0.086189  0  4.003645  0
C  C14  1  0.81798021  0.47362196  0.69984662  1  0  -0.086668  -0.114938  0  3.961316  0
C  C15  1  0.90870691  0.48703647  0.84954186  1  0  -0.007737  0.037567  0  4.016095  0
C  C16  1  0.02734031  0.63254001  0.85109366  1  0  -0.062885  -0.114052  0  3.89015  0
C  C17  1  0.07392915  0.49412562  0.15295118  1  0  0.110072  0.207617  0  3.965582  0
C  C18  1  0.15657312  0.50266286  0.30548647  1  0  -0.097627  -0.178026  0  3.975445  0
C  C19  1  0.26331785  0.64770211  0.30876104  1  0  -0.084775  -0.050457  0  3.978032  0
C  C20  1  0.29649733  0.79138591  0.16007768  1  0  -0.092856  -0.081544  0  4.000941  0
C  C21  1  0.22383458  0.78655530  0.01010818  1  0  -0.084904  -0.114426  0  3.964823  0
C  C22  1  0.10940433  0.63962364  0.00174186  1  0  -0.007136  0.03896  0  4.007383  0
Br  Br23  1  0.50401035  0.99506646  0.50241935  1  0  -0.254239  -0.411008  0  1.801362  0
N  N24  1  0.96390698  0.35022351  0.15264372  1  0  -0.367898  -0.301149  0  3.620083  0
