# generated using pymatgen
data_HgH8C12(BrN3)2
_symmetry_space_group_name_H-M   'P 1'
_cell_length_a   7.29726764
_cell_length_b   7.53626534
_cell_length_c   7.99320891
_cell_angle_alpha   114.58036028
_cell_angle_beta   96.24999671
_cell_angle_gamma   106.81181180
_symmetry_Int_Tables_number   1
_chemical_formula_structural   HgH8C12(BrN3)2
_chemical_formula_sum   'Hg1 H8 C12 Br2 N6'
_cell_volume   369.16021921
_cell_formula_units_Z   1
loop_
 _symmetry_equiv_pos_site_id
 _symmetry_equiv_pos_as_xyz
  1  'x, y, z'
loop_
 _atom_site_type_symbol
 _atom_site_label
 _atom_site_symmetry_multiplicity
 _atom_site_fract_x
 _atom_site_fract_y
 _atom_site_fract_z
 _atom_site_occupancy
 _atom_site_hle17_bader_spin_density
 _atom_site_hle17_ddec_charge
 _atom_site_hle17_ddec_spin_density
 _atom_site_hle17_ddec_sum_bond_order
 _atom_site_hle17_magmom
 _atom_site_hse06_10hf_bader_spin_density
 _atom_site_hse06_10hf_ddec_charge
 _atom_site_hse06_10hf_ddec_spin_density
 _atom_site_hse06_10hf_ddec_sum_bond_order
 _atom_site_hse06_10hf_magmom
 _atom_site_hse06_bader_spin_density
 _atom_site_hse06_ddec_charge
 _atom_site_hse06_ddec_spin_density
 _atom_site_hse06_ddec_sum_bond_order
 _atom_site_hse06_magmom
 _atom_site_pbe_bader_spin_density
 _atom_site_pbe_cm5_charge
 _atom_site_pbe_ddec_charge
 _atom_site_pbe_ddec_spin_density
 _atom_site_pbe_ddec_sum_bond_order
 _atom_site_pbe_magmom
Hg  Hg0  1  0.50000244  0.00000513  0.50000221  1  0  0.664927  0  2.069789  0  0  0.510638  0  2.564011  0  0  0.562884  0  2.527026  0  0  0.4644  0.475012  0  2.588725  0
H  H1  1  0.00280622  0.23853492  0.53729593  1  0  0.07156  0  0.942703  0  0  0.076929  0  1.011538  0  0  0.079717  0  1.009087  0  0  0.101757  0.074834  0  1.013416  0
H  H2  1  0.99717895  0.76145515  0.46270923  1  0  0.071622  0  0.942726  0  0  0.076994  0  1.011542  0  0  0.079831  0  1.009041  0  0  0.10179  0.074901  0  1.013419  0
H  H3  1  0.29087395  0.57668062  0.66418881  1  0  0.098021  0  0.98649  0  0  0.100231  0  1.063081  0  0  0.104008  0  1.061561  0  0  0.085204  0.097427  0  1.06454  0
H  H4  1  0.70911887  0.42329229  0.33580131  1  0  0.097946  0  0.986446  0  0  0.100275  0  1.062941  0  0  0.104052  0  1.06142  0  0  0.085215  0.097464  0  1.064411  0
H  H5  1  0.27721747  0.90209828  0.93081345  1  0  0.099384  0  0.944694  0  0  0.104757  0  1.01313  0  0  0.107875  0  1.01061  0  0  0.101297  0.102475  0  1.014968  0
H  H6  1  0.72279363  0.09789202  0.06917768  1  0  0.09937  0  0.94467  0  0  0.104699  0  1.013136  0  0  0.107812  0  1.010628  0  0  0.101308  0.10242  0  1.014977  0
H  H7  1  0.97729314  0.86834311  0.05711238  1  0  0.106923  0  0.975647  0  0  0.109741  0  1.049753  0  0  0.113434  0  1.047204  0  0  0.101342  0.107089  0  1.051694  0
H  H8  1  0.02271841  0.13166445  0.94288450  1  0  0.107014  0  0.975563  0  0  0.10984  0  1.049639  0  0  0.113533  0  1.047089  0  0  0.101395  0.107189  0  1.051576  0
C  C9  1  0.00005037  0.38225281  0.65057775  1  0  0.125976  0  3.719163  0  0  0.100374  0  3.974373  0  0  0.105164  0  3.994198  0  0  0.042779  0.097408  0  3.960626  0
C  C10  1  0.99993908  0.61774203  0.34942343  1  0  0.125939  0  3.719095  0  0  0.100355  0  3.97429  0  0  0.105102  0  3.994114  0  0  0.042814  0.097394  0  3.960541  0
C  C11  1  0.16235959  0.57164397  0.72277769  1  0  -0.103055  0  3.7068  0  0  -0.117605  0  3.955821  0  0  -0.124564  0  3.980045  0  0  -0.086207  -0.113001  0  3.939439  0
C  C12  1  0.83764171  0.42834153  0.27721696  1  0  -0.103185  0  3.706724  0  0  -0.117855  0  3.955699  0  0  -0.124817  0  3.979941  0  0  -0.086367  -0.113247  0  3.93933  0
C  C13  1  0.15456865  0.75094167  0.86893970  1  0  -0.011041  0  3.703172  0  0  -0.027324  0  3.954271  0  0  -0.026777  0  3.974866  0  0  -0.073147  -0.027328  0  3.940096  0
C  C14  1  0.84543972  0.24904861  0.13105245  1  0  -0.01077  0  3.703162  0  0  -0.027012  0  3.954294  0  0  -0.026464  0  3.974889  0  0  -0.073029  -0.026996  0  3.940063  0
C  C15  1  0.98666627  0.73441305  0.93839743  1  0  -0.105209  0  3.679199  0  0  -0.127859  0  3.928961  0  0  -0.132762  0  3.949684  0  0  -0.075033  -0.124761  0  3.914989  0
C  C16  1  0.01333880  0.26559130  0.06160512  1  0  -0.105438  0  3.679484  0  0  -0.128076  0  3.929274  0  0  -0.132979  0  3.949992  0  0  -0.075089  -0.124971  0  3.915306  0
C  C17  1  0.83010085  0.53903245  0.85569856  1  0  0.140274  0  3.770771  0  0  0.140434  0  4.010886  0  0  0.143959  0  4.033084  0  0  0.113939  0.13824  0  3.995668  0
C  C18  1  0.16989667  0.46097817  0.14430214  1  0  0.140369  0  3.770612  0  0  0.140454  0  4.010901  0  0  0.143981  0  4.033099  0  0  0.113915  0.138256  0  3.995688  0
C  C19  1  0.65248107  0.51679607  0.92946207  1  0  0.246486  0  3.710087  0  0  0.232131  0  3.974589  0  0  0.239359  0  3.989926  0  0  0.250245  0.22686  0  3.964664  0
C  C20  1  0.34751731  0.48321297  0.07053932  1  0  0.246597  0  3.709938  0  0  0.232172  0  3.974571  0  0  0.239395  0  3.989918  0  0  0.250237  0.226903  0  3.964644  0
Br  Br21  1  0.65217463  0.80884509  0.62884177  1  0  -0.376714  0  1.074837  0  0  -0.323539  0  1.389321  0  0  -0.343283  0  1.371367  0  0  -0.199255  -0.310048  0  1.401744  0
Br  Br22  1  0.34783035  0.19115929  0.37115578  1  0  -0.37669  0  1.074863  0  0  -0.323526  0  1.389366  0  0  -0.343268  0  1.371403  0  0  -0.199253  -0.310034  0  1.40179  0
N  N23  1  0.83656094  0.36540339  0.71305019  1  0  -0.326316  0  3.175441  0  0  -0.27452  0  3.434028  0  0  -0.291149  0  3.455447  0  0  -0.307406  -0.262894  0  3.418875  0
N  N24  1  0.16343581  0.63460094  0.28694916  1  0  -0.326352  0  3.175158  0  0  -0.274549  0  3.433807  0  0  -0.291183  0  3.45525  0  0  -0.307422  -0.262927  0  3.418659  0
N  N25  1  0.51290860  0.32310938  0.86480203  1  0  -0.150168  0  3.040395  0  0  -0.118647  0  3.319718  0  0  -0.124094  0  3.330448  0  0  -0.14348  -0.114701  0  3.31269  0
N  N26  1  0.48709096  0.67690277  0.13520571  1  0  -0.150272  0  3.040257  0  0  -0.118718  0  3.319606  0  0  -0.124167  0  3.330341  0  0  -0.143478  -0.114775  0  3.312585  0
N  N27  1  0.35876837  0.30597341  0.93618534  1  0  -0.148642  0  2.952166  0  0  -0.130428  0  3.226732  0  0  -0.13233  0  3.236243  0  0  -0.144245  -0.129122  0  3.220571  0
N  N28  1  0.64123257  0.69403874  0.06382252  1  0  -0.148556  0  2.952007  0  0  -0.130365  0  3.226527  0  0  -0.132268  0  3.236033  0  0  -0.144226  -0.129066  0  3.220374  0
