# generated using pymatgen
data_GaH5C8O5
_symmetry_space_group_name_H-M   'P 1'
_cell_length_a   6.84603607
_cell_length_b   11.01077557
_cell_length_c   11.23498125
_cell_angle_alpha   119.34241610
_cell_angle_beta   107.73034071
_cell_angle_gamma   89.99924851
_symmetry_Int_Tables_number   1
_chemical_formula_structural   GaH5C8O5
_chemical_formula_sum   'Ga2 H10 C16 O10'
_cell_volume   691.72872674
_cell_formula_units_Z   2
loop_
 _symmetry_equiv_pos_site_id
 _symmetry_equiv_pos_as_xyz
  1  'x, y, z'
loop_
 _atom_site_type_symbol
 _atom_site_label
 _atom_site_symmetry_multiplicity
 _atom_site_fract_x
 _atom_site_fract_y
 _atom_site_fract_z
 _atom_site_occupancy
 _atom_site_pbe_bader_charge
 _atom_site_pbe_bader_spin_density
 _atom_site_pbe_cm5_charge
 _atom_site_pbe_ddec_charge
 _atom_site_pbe_ddec_spin_density
 _atom_site_pbe_ddec_sum_bond_order
 _atom_site_pbe_magmom
Ga  Ga0  1  0.00000038  0.49999972  0.99999891  1  1.976134  0  0.589075  1.467534  0  2.80222  0
Ga  Ga1  1  0.50000010  0.49999947  0.99999911  1  1.975803  0  0.589063  1.467528  0  2.802298  0
H  H2  1  0.87574038  0.51404839  0.62472278  1  0.100887  0  0.107597  0.11149  0  1.006199  0
H  H3  1  0.62426058  0.88932519  0.37528073  1  0.083507  0  0.107603  0.11147  0  1.006172  0
H  H4  1  0.75088249  0.48591447  0.37518085  1  0.078857  0  0.107334  0.110829  0  1.005772  0
H  H5  1  0.74912079  0.11073492  0.62482403  1  0.097001  0  0.10736  0.110888  0  1.005828  0
H  H6  1  0.12426040  0.48595110  0.37527749  1  0.100904  0  0.107586  0.111447  0  1.006204  0
H  H7  1  0.37573811  0.11067590  0.62471901  1  0.083516  0  0.107585  0.111438  0  1.006191  0
H  H8  1  0.24911830  0.51408502  0.62481941  1  0.078857  0  0.107319  0.110793  0  1.005799  0
H  H9  1  0.25087915  0.88926695  0.37517543  1  0.097087  0  0.107365  0.110894  0  1.005804  0
H  H10  1  0.75000177  0.33140066  0.00000048  1  0.633028  0  0.346401  0.430197  0  0.848468  0
H  H11  1  0.25000055  0.66859822  0.99999918  1  0.632977  0  0.346417  0.430219  0  0.848437  0
C  C12  1  0.71185069  0.50807700  0.56882894  1  0.002152  0  -0.079755  -0.090858  0  3.967525  0
C  C13  1  0.78815242  0.93924946  0.43117481  1  0.019217  0  -0.079732  -0.090682  0  3.967441  0
C  C14  1  0.64297965  0.49188197  0.43110396  1  -0.086846  0  -0.079145  -0.090598  0  3.967048  0
C  C15  1  0.85702182  0.06077997  0.56890223  1  -0.085043  0  -0.079196  -0.090799  0  3.967219  0
C  C16  1  0.28815163  0.49192277  0.43117160  1  0.002109  0  -0.079731  -0.090745  0  3.96753  0
C  C17  1  0.21184656  0.06075114  0.56882550  1  0.019255  0  -0.079717  -0.090653  0  3.967479  0
C  C18  1  0.35701932  0.50811773  0.56889546  1  -0.086844  0  -0.079133  -0.090609  0  3.967073  0
C  C19  1  0.14297716  0.93922241  0.43109986  1  -0.085346  0  -0.079185  -0.090789  0  3.967238  0
C  C20  1  0.56918587  0.51645337  0.63842218  1  -0.001455  0  -0.011179  -0.032458  0  3.960123  0
C  C21  1  0.64230437  0.52972503  0.78475606  1  1.580142  0  0.250145  0.621041  0  4.13042  0
C  C22  1  0.93081210  0.87803246  0.36157678  1  -0.018889  0  -0.011201  -0.032516  0  3.960249  0
C  C23  1  0.85769775  0.74496888  0.21523986  1  1.576662  0  0.250165  0.621144  0  4.1305  0
C  C24  1  0.43081520  0.48354474  0.36157776  1  -0.001462  0  -0.0112  -0.03254  0  3.960206  0
C  C25  1  0.35769641  0.47027357  0.21524332  1  1.580153  0  0.250126  0.621023  0  4.13046  0
C  C26  1  0.06918687  0.12196724  0.63842264  1  -0.019044  0  -0.011205  -0.032558  0  3.960247  0
C  C27  1  0.14230429  0.25503228  0.78476101  1  1.576679  0  0.250189  0.62123  0  4.130394  0
O  O28  1  0.83659165  0.53435806  0.84052243  1  -1.17975  0  -0.262495  -0.567599  0  2.346819  0
O  O29  1  0.66340405  0.69383611  0.15947383  1  -1.179501  0  -0.262503  -0.567665  0  2.346814  0
O  O30  1  0.49621870  0.46551875  0.15943503  1  -1.180121  0  -0.26258  -0.567633  0  2.349188  0
O  O31  1  0.00378435  0.30608351  0.84056535  1  -1.180572  0  -0.262581  -0.567715  0  2.349353  0
O  O32  1  0.16340733  0.46564165  0.15947699  1  -1.179731  0  -0.262453  -0.567566  0  2.346871  0
O  O33  1  0.33659702  0.30616289  0.84052700  1  -1.179531  0  -0.262512  -0.567693  0  2.346801  0
O  O34  1  0.50378179  0.53448034  0.84056378  1  -1.180114  0  -0.262587  -0.567659  0  2.349244  0
O  O35  1  0.99621462  0.69391619  0.15943407  1  -1.180611  0  -0.262572  -0.567685  0  2.349382  0
O  O36  1  0.75000073  0.41942306  0.99999925  1  -1.235063  0  -0.475331  -0.886067  0  2.225549  0
O  O37  1  0.25000006  0.58057553  0.00000013  1  -1.235006  0  -0.475338  -0.886079  0  2.225548  0
