# generated using pymatgen
data_TlH7C8O3
_symmetry_space_group_name_H-M   'P 1'
_cell_length_a   4.09497382
_cell_length_b   7.54978774
_cell_length_c   13.81707256
_cell_angle_alpha   92.48264245
_cell_angle_beta   86.15683296
_cell_angle_gamma   105.09980397
_symmetry_Int_Tables_number   1
_chemical_formula_structural   TlH7C8O3
_chemical_formula_sum   'Tl2 H14 C16 O6'
_cell_volume   411.34673653
_cell_formula_units_Z   2
loop_
 _symmetry_equiv_pos_site_id
 _symmetry_equiv_pos_as_xyz
  1  'x, y, z'
loop_
 _atom_site_type_symbol
 _atom_site_label
 _atom_site_symmetry_multiplicity
 _atom_site_fract_x
 _atom_site_fract_y
 _atom_site_fract_z
 _atom_site_occupancy
 _atom_site_hle17_bader_spin_density
 _atom_site_hle17_ddec_charge
 _atom_site_hle17_ddec_spin_density
 _atom_site_hle17_ddec_sum_bond_order
 _atom_site_hle17_magmom
 _atom_site_hse06_10hf_bader_spin_density
 _atom_site_hse06_10hf_ddec_charge
 _atom_site_hse06_10hf_ddec_spin_density
 _atom_site_hse06_10hf_ddec_sum_bond_order
 _atom_site_hse06_10hf_magmom
 _atom_site_hse06_bader_spin_density
 _atom_site_hse06_ddec_charge
 _atom_site_hse06_ddec_spin_density
 _atom_site_hse06_ddec_sum_bond_order
 _atom_site_hse06_magmom
 _atom_site_pbe_bader_spin_density
 _atom_site_pbe_cm5_charge
 _atom_site_pbe_ddec_charge
 _atom_site_pbe_ddec_spin_density
 _atom_site_pbe_ddec_sum_bond_order
 _atom_site_pbe_magmom
Tl  Tl0  1  0.04487256  0.77118762  0.91318134  1  0  0.861992  0  0.7938  0  0  0.751903  0  1.084929  0  0  0.785337  0  1.059028  0  0  0.424646  0.726968  0  1.10355  0
Tl  Tl1  1  0.95511827  0.22880456  0.08682005  1  0  0.861992  0  0.793812  0  0  0.751895  0  1.084951  0  0  0.785326  0  1.059051  0  0  0.424621  0.726963  0  1.103579  0
H  H2  1  0.80827820  0.76550668  0.48046421  1  0  0.083333  0  0.95735  0  0  0.097693  0  1.016168  0  0  0.09998  0  1.015189  0  0  0.098153  0.096047  0  1.01689  0
H  H3  1  0.19172239  0.23449944  0.51953480  1  0  0.083316  0  0.957349  0  0  0.097675  0  1.016177  0  0  0.099963  0  1.0152  0  0  0.098146  0.096027  0  1.016899  0
H  H4  1  0.68011755  0.05068854  0.42914397  1  0  0.082396  0  0.977505  0  0  0.094669  0  1.039826  0  0  0.097134  0  1.039667  0  0  0.094285  0.092946  0  1.039991  0
H  H5  1  0.31989500  0.94931633  0.57085274  1  0  0.082446  0  0.977525  0  0  0.094659  0  1.039921  0  0  0.097124  0  1.039761  0  0  0.09424  0.092935  0  1.040088  0
H  H6  1  0.47027640  0.06089184  0.26377739  1  0  0.078512  0  0.98012  0  0  0.086863  0  1.049659  0  0  0.089829  0  1.04762  0  0  0.09773  0.084757  0  1.051102  0
H  H7  1  0.52973138  0.93911849  0.73622031  1  0  0.078559  0  0.980138  0  0  0.086911  0  1.049669  0  0  0.089862  0  1.04767  0  0  0.097759  0.084805  0  1.051112  0
H  H8  1  0.53032254  0.53922418  0.12237941  1  0  0.36623  0  0.944212  0  0  0.336751  0  1.022133  0  0  0.349177  0  1.009862  0  0  0.289868  0.328085  0  1.030455  0
H  H9  1  0.46970326  0.46078324  0.87761878  1  0  0.366073  0  0.944419  0  0  0.336688  0  1.022188  0  0  0.349114  0  1.009916  0  0  0.289821  0.328021  0  1.030511  0
H  H10  1  0.81045330  0.44884888  0.45179188  1  0  0.098716  0  0.973997  0  0  0.121773  0  1.035908  0  0  0.122564  0  1.036406  0  0  0.088746  0.121127  0  1.035637  0
H  H11  1  0.18951925  0.55115040  0.54820846  1  0  0.098769  0  0.97392  0  0  0.121838  0  1.035804  0  0  0.122629  0  1.0363  0  0  0.088753  0.121187  0  1.035541  0
H  H12  1  0.98256486  0.41290616  0.33281665  1  0  0.105776  0  0.956123  0  0  0.126805  0  1.020614  0  0  0.127553  0  1.021372  0  0  0.090982  0.126212  0  1.020154  0
H  H13  1  0.01742766  0.58709536  0.66718802  1  0  0.105817  0  0.956309  0  0  0.126877  0  1.020754  0  0  0.127626  0  1.021509  0  0  0.091016  0.126281  0  1.0203  0
H  H14  1  0.54458459  0.32854777  0.36108285  1  0  0.100758  0  0.954989  0  0  0.124773  0  1.016884  0  0  0.125781  0  1.016316  0  0  0.090778  0.124001  0  1.017309  0
H  H15  1  0.45540098  0.67145287  0.63891674  1  0  0.100794  0  0.954967  0  0  0.124812  0  1.016855  0  0  0.125817  0  1.016286  0  0  0.090795  0.12404  0  1.017281  0
C  C16  1  0.40265212  0.80018662  0.12146013  1  0  0.659729  0  3.900186  0  0  0.610739  0  4.186652  0  0  0.646168  0  4.178858  0  0  0.204191  0.586661  0  4.191  0
C  C17  1  0.59733587  0.19980001  0.87854178  1  0  0.659534  0  3.900763  0  0  0.610578  0  4.187159  0  0  0.646005  0  4.179365  0  0  0.204119  0.586504  0  4.191502  0
C  C18  1  0.52124174  0.79288507  0.22029167  1  0  -0.203284  0  3.768523  0  0  -0.187165  0  4.01157  0  0  -0.199844  0  4.034316  0  0  -0.039974  -0.178931  0  3.996353  0
C  C19  1  0.47874600  0.20711006  0.77970769  1  0  -0.203355  0  3.768911  0  0  -0.187136  0  4.0119  0  0  -0.199804  0  4.034627  0  0  -0.040053  -0.17891  0  3.99669  0
C  C20  1  0.72957595  0.77323552  0.40713138  1  0  -0.090342  0  3.750753  0  0  -0.111203  0  3.993961  0  0  -0.110067  0  4.015112  0  0  -0.087424  -0.111608  0  3.979471  0
C  C21  1  0.27042867  0.22676482  0.59287027  1  0  -0.090302  0  3.751135  0  0  -0.111159  0  3.994314  0  0  -0.11003  0  4.015471  0  0  -0.087447  -0.11157  0  3.979815  0
C  C22  1  0.65679730  0.93404395  0.37850658  1  0  -0.110309  0  3.819695  0  0  -0.125797  0  4.077892  0  0  -0.131729  0  4.101253  0  0  -0.111308  -0.121934  0  4.061963  0
C  C23  1  0.34319838  0.06596003  0.62148584  1  0  -0.110398  0  3.819765  0  0  -0.125847  0  4.077978  0  0  -0.131775  0  4.101334  0  0  -0.1113  -0.121987  0  4.062054  0
C  C24  1  0.54617301  0.94153753  0.28633584  1  0  -0.064036  0  3.8134  0  0  -0.089761  0  4.068268  0  0  -0.087599  0  4.090254  0  0  -0.090491  -0.090822  0  4.053156  0
C  C25  1  0.45383450  0.05846299  0.71366362  1  0  -0.064011  0  3.813391  0  0  -0.089761  0  4.068222  0  0  -0.087597  0  4.090191  0  0  -0.090472  -0.09082  0  4.053115  0
C  C26  1  0.60887032  0.63448517  0.24932152  1  0  0.291136  0  3.743634  0  0  0.272438  0  3.997156  0  0  0.286073  0  4.012431  0  0  0.08908  0.263167  0  3.98674  0
C  C27  1  0.39115393  0.36551080  0.75068128  1  0  0.291198  0  3.743708  0  0  0.272298  0  3.99746  0  0  0.285933  0  4.012737  0  0  0.089042  0.263022  0  3.987046  0
C  C28  1  0.70309827  0.62089744  0.34441855  1  0  0.026741  0  3.736809  0  0  0.054891  0  3.971876  0  0  0.050078  0  3.99626  0  0  -0.023545  0.057847  0  3.955515  0
C  C29  1  0.29690410  0.37909761  0.65558072  1  0  0.026602  0  3.736809  0  0  0.054811  0  3.971916  0  0  0.049998  0  3.996301  0  0  -0.02358  0.05779  0  3.955523  0
C  C30  1  0.76502992  0.44442409  0.37439902  1  0  -0.311381  0  3.738007  0  0  -0.398484  0  3.977075  0  0  -0.399068  0  3.987142  0  0  -0.239422  -0.39776  0  3.970187  0
C  C31  1  0.23495514  0.55557742  0.62560642  1  0  -0.311494  0  3.738163  0  0  -0.398633  0  3.977227  0  0  -0.399211  0  3.987285  0  0  -0.239469  -0.397908  0  3.970326  0
O  O32  1  0.41366048  0.66352259  0.06144535  1  0  -0.684809  0  2.000609  0  0  -0.60958  0  2.225653  0  0  -0.638796  0  2.217945  0  0  -0.315111  -0.588957  0  2.23023  0
O  O33  1  0.58634386  0.33647763  0.93855775  1  0  -0.684732  0  2.00051  0  0  -0.609572  0  2.225488  0  0  -0.638793  0  2.217782  0  0  -0.315101  -0.588947  0  2.230061  0
O  O34  1  0.29917503  0.93533446  0.09768074  1  0  -0.699046  0  2.019538  0  0  -0.628345  0  2.258249  0  0  -0.658801  0  2.253871  0  0  -0.311006  -0.60669  0  2.260516  0
O  O35  1  0.70078819  0.06466075  0.90231949  1  0  -0.698886  0  2.020232  0  0  -0.628176  0  2.258868  0  0  -0.658625  0  2.254486  0  0  -0.31086  -0.606529  0  2.261137  0
O  O36  1  0.59677610  0.49051908  0.18596598  1  0  -0.592116  0  2.183659  0  0  -0.528962  0  2.412904  0  0  -0.553768  0  2.40782  0  0  -0.350169  -0.511122  0  2.415706  0
O  O37  1  0.40327598  0.50948687  0.81403127  1  0  -0.591916  0  2.183814  0  0  -0.528756  0  2.412979  0  0  -0.553565  0  2.407907  0  0  -0.350042  -0.510901  0  2.415742  0
