# generated using pymatgen
data_CuPH7C2NClO3
_symmetry_space_group_name_H-M   'P 1'
_cell_length_a   6.30532600
_cell_length_b   7.63762808
_cell_length_c   7.77139704
_cell_angle_alpha   110.80108036
_cell_angle_beta   113.91265917
_cell_angle_gamma   90.01919022
_symmetry_Int_Tables_number   1
_chemical_formula_structural   CuPH7C2NClO3
_chemical_formula_sum   'Cu2 P2 H14 C4 N2 Cl2 O6'
_cell_volume   315.23703938
_cell_formula_units_Z   2
loop_
 _symmetry_equiv_pos_site_id
 _symmetry_equiv_pos_as_xyz
  1  'x, y, z'
loop_
 _atom_site_type_symbol
 _atom_site_label
 _atom_site_symmetry_multiplicity
 _atom_site_fract_x
 _atom_site_fract_y
 _atom_site_fract_z
 _atom_site_occupancy
 _atom_site_pbe_cm5_charge
 _atom_site_pbe_ddec_charge
 _atom_site_pbe_ddec_spin_density
 _atom_site_pbe_ddec_sum_bond_order
 _atom_site_pbe_magmom
Cu  Cu0  1  0.09768001  0.91226367  0.19548217  1  0.658528  0.963008  0.751555  2.18966  0.608
Cu  Cu1  1  0.90230960  0.08773314  0.80451031  1  0.658514  0.963022  0.751541  2.189957  0.608
P  P2  1  0.34061278  0.03416221  0.68112570  1  0.33971  1.325449  0.013745  5.336034  0.01
P  P3  1  0.65936452  0.96583460  0.31883961  1  0.339692  1.32528  0.01375  5.336127  0.01
H  H4  1  0.28700457  0.43636219  0.57433960  1  0.099696  0.133612  0.001413  1.015541  0.0
H  H5  1  0.71300131  0.56363746  0.42566816  1  0.099712  0.133606  0.001414  1.015594  0.0
H  H6  1  0.26098350  0.48243196  0.80669602  1  0.104692  0.131796  -2.2e-05  1.001492  0.0
H  H7  1  0.45445136  0.51757147  0.19350687  1  0.104906  0.131904  -2e-05  1.001279  0.0
H  H8  1  0.73901979  0.51757194  0.19331239  1  0.104689  0.131829  -2.2e-05  1.001468  0.0
H  H9  1  0.54555019  0.48243244  0.80649970  1  0.104926  0.13197  -2e-05  1.001219  0.0
H  H10  1  0.39962426  0.71668765  0.51362121  1  0.119974  0.146271  0.000128  0.997791  0.0
H  H11  1  0.88533094  0.28344881  0.48663768  1  0.120065  0.146024  0.000129  0.997451  0.0
H  H12  1  0.60037985  0.28331200  0.48638212  1  0.119994  0.146267  0.000128  0.997796  0.0
H  H13  1  0.11467168  0.71654373  0.51336140  1  0.120064  0.146024  0.000129  0.997434  0.0
H  H14  1  0.56973105  0.78530320  0.87795927  1  0.301149  0.276209  -2.1e-05  0.944131  0.0
H  H15  1  0.69262193  0.21491354  0.12258720  1  0.301158  0.275985  -2.4e-05  0.946338  0.0
H  H16  1  0.43027681  0.21469787  0.12204321  1  0.301161  0.276188  -2e-05  0.944206  0.0
H  H17  1  0.30738656  0.78509036  0.87742033  1  0.301184  0.275951  -2.5e-05  0.946358  0.0
C  C18  1  0.30245949  0.77626015  0.60430671  1  -0.07426  -0.359477  -0.000581  3.804355  0.0
C  C19  1  0.69754288  0.22373949  0.39569477  1  -0.074277  -0.359392  -0.000581  3.804184  0.0
C  C20  1  0.36974152  0.51671863  0.73965807  1  -0.144687  -0.235727  0.001528  3.72467  0.001
C  C21  1  0.63026237  0.48328812  0.26035154  1  -0.144682  -0.235711  0.001529  3.724776  0.001
N  N22  1  0.39290119  0.72538769  0.78593093  1  -0.48785  -0.119056  0.000614  3.573642  0.0
N  N23  1  0.60710003  0.27461479  0.21406988  1  -0.487817  -0.11905  0.000614  3.573534  0.0
Cl  Cl24  1  0.92507829  0.72449602  0.85012036  1  -0.264284  -0.522031  0.075143  1.315709  0.097
Cl  Cl25  1  0.07491622  0.27549936  0.14987321  1  -0.26435  -0.522103  0.075108  1.315718  0.097
O  O26  1  0.24318609  0.07446287  0.48693337  1  -0.384057  -0.751299  0.045875  2.385604  0.065
O  O27  1  0.75680968  0.92552967  0.51307634  1  -0.384076  -0.751229  0.045911  2.385042  0.065
O  O28  1  0.21678195  0.11400526  0.82096089  1  -0.397337  -0.771324  0.055378  2.411366  0.078
O  O29  1  0.39587810  0.88553538  0.17942679  1  -0.397386  -0.771314  0.05516  2.412516  0.078
O  O30  1  0.78320480  0.88599438  0.17903422  1  -0.397337  -0.771281  0.05537  2.411622  0.078
O  O31  1  0.60412743  0.11447137  0.82056919  1  -0.397416  -0.771399  0.055174  2.41233  0.078
