# generated using pymatgen
data_NaH5C5(NO2)2
_symmetry_space_group_name_H-M   'P 1'
_cell_length_a   3.56815419
_cell_length_b   10.22080954
_cell_length_c   10.81822319
_cell_angle_alpha   108.95840258
_cell_angle_beta   98.63924665
_cell_angle_gamma   96.20936253
_symmetry_Int_Tables_number   1
_chemical_formula_structural   NaH5C5(NO2)2
_chemical_formula_sum   'Na2 H10 C10 N4 O8'
_cell_volume   363.66402760
_cell_formula_units_Z   2
loop_
 _symmetry_equiv_pos_site_id
 _symmetry_equiv_pos_as_xyz
  1  'x, y, z'
loop_
 _atom_site_type_symbol
 _atom_site_label
 _atom_site_symmetry_multiplicity
 _atom_site_fract_x
 _atom_site_fract_y
 _atom_site_fract_z
 _atom_site_occupancy
 _atom_site_hle17_bader_spin_density
 _atom_site_hle17_ddec_charge
 _atom_site_hle17_ddec_spin_density
 _atom_site_hle17_ddec_sum_bond_order
 _atom_site_hle17_magmom
 _atom_site_hse06_bader_spin_density
 _atom_site_hse06_ddec_charge
 _atom_site_hse06_ddec_spin_density
 _atom_site_hse06_ddec_sum_bond_order
 _atom_site_hse06_magmom
 _atom_site_pbe_bader_spin_density
 _atom_site_pbe_cm5_charge
 _atom_site_pbe_ddec_charge
 _atom_site_pbe_ddec_spin_density
 _atom_site_pbe_ddec_sum_bond_order
 _atom_site_pbe_magmom
Na  Na0  1  0.26102040  0.61414406  0.92518578  1  0  0.896842  0  0.378485  0  0  0.858614  0  0.515701  0  0  0.669227  0.840107  0  0.553251  0
Na  Na1  1  0.73890494  0.38585232  0.07479919  1  0  0.896849  0  0.378456  0  0  0.858602  0  0.515695  0  0  0.669215  0.840079  0  0.553253  0
H  H2  1  0.71142960  0.88016015  0.45575800  1  0  0.11748  0  0.955517  0  0  0.123807  0  1.022969  0  0  0.115918  0.117657  0  1.030191  0
H  H3  1  0.28858272  0.11984785  0.54426733  1  0  0.117486  0  0.955363  0  0  0.123783  0  1.022841  0  0  0.115877  0.117621  0  1.03006  0
H  H4  1  0.25761065  0.57813331  0.38143377  1  0  0.119799  0  0.963421  0  0  0.133342  0  1.025123  0  0  0.106771  0.126054  0  1.025788  0
H  H5  1  0.74243395  0.42185711  0.61855724  1  0  0.119786  0  0.963427  0  0  0.133361  0  1.02511  0  0  0.106803  0.126057  0  1.025781  0
H  H6  1  0.58754812  0.76720638  0.23397348  1  0  0.042786  0  0.939287  0  0  0.050214  0  1.005637  0  0  0.108343  0.04584  0  1.014179  0
H  H7  1  0.41243014  0.23279434  0.76601643  1  0  0.042742  0  0.939498  0  0  0.050193  0  1.005811  0  0  0.108334  0.045814  0  1.014334  0
H  H8  1  0.79349745  0.83015071  0.91476314  1  0  0.414566  0  0.889249  0  0  0.394112  0  0.938525  0  0  0.292693  0.377108  0  0.963651  0
H  H9  1  0.20647165  0.16985518  0.08523716  1  0  0.414612  0  0.88914  0  0  0.394138  0  0.938467  0  0  0.292692  0.377115  0  0.963624  0
H  H10  1  0.97697405  0.86455913  0.06185075  1  0  0.422903  0  0.874283  0  0  0.399755  0  0.927089  0  0  0.292324  0.380663  0  0.955555  0
H  H11  1  0.02299645  0.13544992  0.93814875  1  0  0.422706  0  0.874581  0  0  0.399579  0  0.927344  0  0  0.292297  0.380492  0  0.955797  0
C  C12  1  0.40063451  0.71568724  0.66049545  1  0  0.294146  0  3.813632  0  0  0.288209  0  4.113563  0  0  0.194438  0.2651  0  4.082407  0
C  C13  1  0.59943880  0.28429163  0.33951654  1  0  0.294507  0  3.812783  0  0  0.288662  0  4.112784  0  0  0.194634  0.265547  0  4.081619  0
C  C14  1  0.56782809  0.81450602  0.61114662  1  0  -0.061982  0  3.791907  0  0  -0.085117  0  4.078225  0  0  0.065391  -0.065544  0  4.047051  0
C  C15  1  0.43225945  0.18547922  0.38885882  1  0  -0.061982  0  3.792277  0  0  -0.085359  0  4.078871  0  0  0.06546  -0.065775  0  4.047675  0
C  C16  1  0.56678640  0.79142980  0.47554752  1  0  -0.006946  0  3.753683  0  0  -0.024027  0  4.033156  0  0  -0.05736  -0.043252  0  4.005924  0
C  C17  1  0.43326871  0.20857209  0.52446699  1  0  -0.006834  0  3.753495  0  0  -0.023775  0  4.033002  0  0  -0.057315  -0.043006  0  4.005761  0
C  C18  1  0.40560790  0.67119622  0.36971419  1  0  -0.207255  0  3.736024  0  0  -0.245786  0  4.02437  0  0  -0.110987  -0.213307  0  3.982859  0
C  C19  1  0.59440397  0.32879723  0.63028073  1  0  -0.207216  0  3.736369  0  0  -0.24581  0  4.024725  0  0  -0.110984  -0.213337  0  3.9832  0
C  C20  1  0.43421275  0.66978565  0.23969544  1  0  0.361275  0  3.753541  0  0  0.348164  0  4.03176  0  0  0.075492  0.306507  0  4.030032  0
C  C21  1  0.56574195  0.33020662  0.76029158  1  0  0.361351  0  3.752912  0  0  0.348257  0  4.031079  0  0  0.075524  0.306608  0  4.029324  0
N  N22  1  0.26144295  0.63352175  0.70167404  1  0  -0.44833  0  2.622772  0  0  -0.435714  0  2.877634  0  0  -0.354823  -0.415619  0  2.860665  0
N  N23  1  0.73864256  0.36645835  0.29830752  1  0  -0.448728  0  2.621707  0  0  -0.436127  0  2.876562  0  0  -0.355015  -0.416023  0  2.859579  0
N  N24  1  0.74819020  0.94299886  0.70804998  1  0  0.486765  0  3.962611  0  0  0.526762  0  4.285992  0  0  0.020916  0.491507  0  4.260028  0
N  N25  1  0.25183590  0.05701446  0.29196845  1  0  0.486747  0  3.962398  0  0  0.526855  0  4.285769  0  0  0.020968  0.491581  0  4.25982  0
O  O26  1  0.91054166  0.03828694  0.67559456  1  0  -0.416872  0  1.802893  0  0  -0.405767  0  2.031716  0  0  -0.151496  -0.375483  0  2.032535  0
O  O27  1  0.08944347  0.96171687  0.32441238  1  0  -0.416949  0  1.802645  0  0  -0.40584  0  2.031425  0  0  -0.151577  -0.375531  0  2.032203  0
O  O28  1  0.74128131  0.96092994  0.83034126  1  0  -0.463549  0  1.80843  0  0  -0.437061  0  2.012462  0  0  -0.161522  -0.407482  0  2.021532  0
O  O29  1  0.25868920  0.03907911  0.16965732  1  0  -0.463597  0  1.808091  0  0  -0.437143  0  2.012088  0  0  -0.161606  -0.407539  0  2.021181  0
O  O30  1  0.30187783  0.56735667  0.13277568  1  0  -0.635461  0  1.982537  0  0  -0.602532  0  2.216774  0  0  -0.417064  -0.570574  0  2.233371  0
O  O31  1  0.69801449  0.43266158  0.86722457  1  0  -0.635555  0  1.981854  0  0  -0.602698  0  2.216191  0  0  -0.417104  -0.570746  0  2.232793  0
O  O32  1  0.84727132  0.78431460  0.98131654  1  0  -0.916122  0  1.780864  0  0  -0.886895  0  1.922178  0  0  -0.688231  -0.859188  0  1.979877  0
O  O33  1  0.15268849  0.21568922  0.01867063  1  0  -0.915972  0  1.780923  0  0  -0.886759  0  1.922247  0  0  -0.688235  -0.85905  0  1.979982  0
