# generated using pymatgen
data_AlH3C7ClO5F
_symmetry_space_group_name_H-M   'P 1'
_cell_length_a   6.67636932
_cell_length_b   8.97097531
_cell_length_c   11.20611842
_cell_angle_alpha   60.69221768
_cell_angle_beta   71.91603080
_cell_angle_gamma   73.30617708
_symmetry_Int_Tables_number   1
_chemical_formula_structural   AlH3C7ClO5F
_chemical_formula_sum   'Al2 H6 C14 Cl2 O10 F2'
_cell_volume   548.89276033
_cell_formula_units_Z   2
loop_
 _symmetry_equiv_pos_site_id
 _symmetry_equiv_pos_as_xyz
  1  'x, y, z'
loop_
 _atom_site_type_symbol
 _atom_site_label
 _atom_site_symmetry_multiplicity
 _atom_site_fract_x
 _atom_site_fract_y
 _atom_site_fract_z
 _atom_site_occupancy
 _atom_site_pbe_bader_charge
 _atom_site_pbe_bader_spin_density
 _atom_site_pbe_cm5_charge
 _atom_site_pbe_ddec_charge
 _atom_site_pbe_ddec_spin_density
 _atom_site_pbe_ddec_sum_bond_order
 _atom_site_pbe_magmom
Al  Al0  1  0.49680919  0.48445673  0.50964104  1  2.506056  0  0.400001  1.645652  0  2.572761  0
Al  Al1  1  0.99766669  0.48369560  0.50807452  1  2.50419  0  0.398807  1.648723  0  2.571186  0
H  H2  1  0.78326544  0.62674258  0.33214211  1  0.609298  0  0.356162  0.435893  0  0.846146  0
H  H3  1  0.26814618  0.26727522  0.63049511  1  0.64244  0  0.357032  0.440195  0  0.839718  0
H  H4  1  0.04639065  0.78762043  0.00781246  1  0.04663  0  0.099126  0.112186  0  0.973533  0
H  H5  1  0.94930764  0.58653247  0.08864237  1  0.065642  0  0.094044  0.109848  0  1.013797  0
H  H6  1  0.06738828  0.57167841  0.85707681  1  0.07582  0  0.095346  0.114337  0  1.008179  0
H  H7  1  0.17388832  0.76744187  0.77995147  1  0.061537  0  0.0927  0.105055  0  0.998117  0
C  C8  1  0.36042428  0.51200035  0.27303923  1  1.604271  0  0.268558  0.670374  0  4.093879  0
C  C9  1  0.14901725  0.77818828  0.47666006  1  1.645902  0  0.269048  0.645522  0  4.125112  0
C  C10  1  0.63890936  0.44998574  0.74441398  1  1.623095  0  0.27259  0.670142  0  4.09588  0
C  C11  1  0.84282200  0.18427235  0.54614026  1  1.64637  0  0.264479  0.647787  0  4.121745  0
C  C12  1  0.90434187  0.00751545  0.54913200  1  0.113789  0  0.012931  -0.041329  0  3.943548  0
C  C13  1  0.08613044  0.95550284  0.47290429  1  0.129564  0  0.016266  -0.038491  0  3.948339  0
C  C14  1  0.43195940  0.49080357  0.14182845  1  0.024434  0  -0.01794  -0.175156  0  3.998886  0
C  C15  1  0.56752761  0.45605850  0.88187594  1  0.007591  0  -0.014254  -0.173009  0  3.991038  0
C  C16  1  0.30045732  0.55541711  0.04583097  1  0.067041  0  -0.007554  0.06536  0  3.908206  0
C  C17  1  0.69934360  0.38545357  0.98000476  1  0.490802  0  0.096931  0.151216  0  4.061418  0
C  C18  1  0.36567228  0.54020625  0.92091705  1  0.007375  0  -0.003867  0.070455  0  3.895662  0
C  C19  1  0.63450512  0.40249687  0.10486932  1  0.537094  0  0.094732  0.146827  0  4.056973  0
C  C20  1  0.08210341  0.65569875  0.01646367  1  -0.019221  0  -0.151771  -0.197692  0  3.855417  0
C  C21  1  0.15832812  0.64255456  0.87280790  1  -0.022576  0  -0.153189  -0.197247  0  3.853523  0
Cl  Cl22  1  0.71929279  0.87330727  0.66040157  1  -0.139505  0  0.035396  0.000733  0  1.607019  0
Cl  Cl23  1  0.27072142  0.08924400  0.36104234  1  -0.132052  0  0.033744  0.004036  0  1.609591  0
O  O24  1  0.50141742  0.51817514  0.32436682  1  -1.254577  0  -0.236535  -0.599047  0  2.344745  0
O  O25  1  0.00458882  0.71185628  0.47779937  1  -1.238591  0  -0.224846  -0.567757  0  2.37618  0
O  O26  1  0.83687174  0.44427799  0.69043801  1  -1.250394  0  -0.230647  -0.591149  0  2.377844  0
O  O27  1  0.64701086  0.25031496  0.54893393  1  -1.24844  0  -0.233352  -0.594783  0  2.376129  0
O  O28  1  0.49352152  0.45504505  0.69077972  1  -1.250394  0  -0.225233  -0.565931  0  2.313056  0
O  O29  1  0.98988546  0.24986841  0.54349506  1  -1.246933  0  -0.233954  -0.591158  0  2.376394  0
O  O30  1  0.15980418  0.52493893  0.32208906  1  -1.259151  0  -0.233851  -0.594702  0  2.330272  0
O  O31  1  0.34422014  0.71241889  0.47616608  1  -1.246219  0  -0.22631  -0.574298  0  2.371637  0
O  O32  1  0.75331667  0.56955651  0.43347010  1  -1.41081  0  -0.445564  -0.981694  0  2.17463  0
O  O33  1  0.24589728  0.39256968  0.57914837  1  -1.442875  0  -0.445966  -0.985641  0  2.17779  0
F  F34  1  0.89531996  0.29276405  0.95921401  1  -0.619019  0  -0.08841  -0.106953  0  1.378894  0
F  F35  1  0.77449162  0.32405991  0.19196636  1  -0.628185  0  -0.084649  -0.108304  0  1.40299  0
