# generated using pymatgen
data_ZnH6C7N4
_symmetry_space_group_name_H-M   'P 1'
_cell_length_a   7.03113131
_cell_length_b   8.68170350
_cell_length_c   8.68160540
_cell_angle_alpha   112.82239922
_cell_angle_beta   105.58690230
_cell_angle_gamma   105.58750557
_symmetry_Int_Tables_number   1
_chemical_formula_structural   ZnH6C7N4
_chemical_formula_sum   'Zn2 H12 C14 N8'
_cell_volume   426.97093701
_cell_formula_units_Z   2
loop_
 _symmetry_equiv_pos_site_id
 _symmetry_equiv_pos_as_xyz
  1  'x, y, z'
loop_
 _atom_site_type_symbol
 _atom_site_label
 _atom_site_symmetry_multiplicity
 _atom_site_fract_x
 _atom_site_fract_y
 _atom_site_fract_z
 _atom_site_occupancy
 _atom_site_pbe_bader_spin_density
 _atom_site_pbe_cm5_charge
 _atom_site_pbe_ddec_charge
 _atom_site_pbe_ddec_spin_density
 _atom_site_pbe_ddec_sum_bond_order
 _atom_site_pbe_magmom
Zn  Zn0  1  0.24999827  0.47612868  0.52386900  1  0  0.727471  0.567524  0  2.633281  0
Zn  Zn1  1  0.75000130  0.52386901  0.47613197  1  0  0.727459  0.567619  0  2.633227  0
H  H2  1  0.11385014  0.25284643  0.09446540  1  0  0.117651  0.112706  0  0.99636  0
H  H3  1  0.38613576  0.90551945  0.74714233  1  0  0.117668  0.112695  0  0.996369  0
H  H4  1  0.88614134  0.74714982  0.90553327  1  0  0.117652  0.112684  0  0.996329  0
H  H5  1  0.61386261  0.09447275  0.25285507  1  0  0.117648  0.112694  0  0.996348  0
H  H6  1  0.59233738  0.43043537  0.05249962  1  0  0.109952  0.09978  0  1.025113  0
H  H7  1  0.90765843  0.94750089  0.56956409  1  0  0.109929  0.099774  0  1.025136  0
H  H8  1  0.40766888  0.56957610  0.94750589  1  0  0.109989  0.099822  0  1.025063  0
H  H9  1  0.09233506  0.05249950  0.43043547  1  0  0.109947  0.09978  0  1.025078  0
H  H10  1  0.61720709  0.25032225  0.72282501  1  0  0.093437  0.100426  0  1.008471  0
H  H11  1  0.88277913  0.27716252  0.74966441  1  0  0.093442  0.100449  0  1.008412  0
H  H12  1  0.38278885  0.74967404  0.27717462  1  0  0.093435  0.100443  0  1.008445  0
H  H13  1  0.11721598  0.72283514  0.25033558  1  0  0.093439  0.100439  0  1.00841  0
C  C14  1  0.74999546  0.21791115  0.78207807  1  0  -0.15283  -0.194277  0  3.989135  0
C  C15  1  0.25000395  0.78208930  0.21792049  1  0  -0.152856  -0.19429  0  3.989317  0
C  C16  1  0.82364965  0.30729954  0.98715766  1  0  -0.034908  0.023164  0  4.038121  0
C  C17  1  0.67633891  0.01283087  0.69269371  1  0  -0.034856  0.023269  0  4.038095  0
C  C18  1  0.17635112  0.69270365  0.01284457  1  0  -0.034938  0.023136  0  4.038138  0
C  C19  1  0.32365636  0.98716403  0.30730754  1  0  -0.03486  0.023215  0  4.038049  0
C  C20  1  0.99793670  0.31087158  0.11574309  1  0  0.001144  -0.069206  0  3.974445  0
C  C21  1  0.50205905  0.88425158  0.68912131  1  0  0.001101  -0.069244  0  3.974526  0
C  C22  1  0.00206152  0.68912337  0.88425306  1  0  0.001138  -0.069169  0  3.974498  0
C  C23  1  0.49794386  0.11575300  0.31088193  1  0  0.001185  -0.069159  0  3.974452  0
C  C24  1  0.73309954  0.40201511  0.09436267  1  0  -0.004501  -0.086625  0  4.008943  0
C  C25  1  0.76689891  0.90563362  0.59797878  1  0  -0.004474  -0.086621  0  4.008794  0
C  C26  1  0.26690255  0.59799086  0.90563517  1  0  -0.004535  -0.086693  0  4.00888  0
C  C27  1  0.23310763  0.09437238  0.40202003  1  0  -0.004503  -0.086721  0  4.009139  0
N  N28  1  0.00954793  0.40151977  0.28658382  1  0  -0.281544  -0.179983  0  3.614518  0
N  N29  1  0.49044782  0.71340790  0.59847422  1  0  -0.281518  -0.179985  0  3.614454  0
N  N30  1  0.99045283  0.59848342  0.71341841  1  0  -0.281569  -0.180063  0  3.614639  0
N  N31  1  0.50955040  0.28658705  0.40152308  1  0  -0.28158  -0.18011  0  3.614641  0
N  N32  1  0.84662556  0.45948310  0.27424281  1  0  -0.288554  -0.186938  0  3.624764  0
N  N33  1  0.65337178  0.72574938  0.54051136  1  0  -0.288603  -0.186971  0  3.624713  0
N  N34  1  0.15338018  0.54052426  0.72575982  1  0  -0.288508  -0.186821  0  3.624676  0
N  N35  1  0.34662213  0.27424279  0.45948277  1  0  -0.288551  -0.186744  0  3.624762  0
