# generated using pymatgen
data_Ag2H7C7(IN)2
_symmetry_space_group_name_H-M   'P 1'
_cell_length_a   4.42097336
_cell_length_b   11.84477840
_cell_length_c   12.22991976
_cell_angle_alpha   60.63459180
_cell_angle_beta   81.46880251
_cell_angle_gamma   81.83431630
_symmetry_Int_Tables_number   1
_chemical_formula_structural   Ag2H7C7(IN)2
_chemical_formula_sum   'Ag4 H14 C14 I4 N4'
_cell_volume   550.17473049
_cell_formula_units_Z   2
loop_
 _symmetry_equiv_pos_site_id
 _symmetry_equiv_pos_as_xyz
  1  'x, y, z'
loop_
 _atom_site_type_symbol
 _atom_site_label
 _atom_site_symmetry_multiplicity
 _atom_site_fract_x
 _atom_site_fract_y
 _atom_site_fract_z
 _atom_site_occupancy
 _atom_site_hle17_bader_spin_density
 _atom_site_hle17_ddec_charge
 _atom_site_hle17_ddec_spin_density
 _atom_site_hle17_ddec_sum_bond_order
 _atom_site_hle17_magmom
 _atom_site_hse06_10hf_bader_spin_density
 _atom_site_hse06_10hf_ddec_charge
 _atom_site_hse06_10hf_ddec_spin_density
 _atom_site_hse06_10hf_ddec_sum_bond_order
 _atom_site_hse06_10hf_magmom
 _atom_site_hse06_bader_spin_density
 _atom_site_hse06_ddec_charge
 _atom_site_hse06_ddec_spin_density
 _atom_site_hse06_ddec_sum_bond_order
 _atom_site_hse06_magmom
 _atom_site_pbe_bader_spin_density
 _atom_site_pbe_cm5_charge
 _atom_site_pbe_ddec_charge
 _atom_site_pbe_ddec_spin_density
 _atom_site_pbe_ddec_sum_bond_order
 _atom_site_pbe_magmom
Ag  Ag0  1  0.81036428  0.32631322  0.92179270  1  0  0.330465  0  1.866775  0  0  0.221851  0  2.375486  0  0  0.248618  0  2.327045  0  0  0.23595  0.203681  0  2.406855  0
Ag  Ag1  1  0.18963109  0.67368104  0.07820139  1  0  0.330442  0  1.866822  0  0  0.221794  0  2.375575  0  0  0.248567  0  2.327128  0  0  0.235955  0.203614  0  2.406947  0
Ag  Ag2  1  0.31894810  0.12174650  0.97779595  1  0  0.246893  0  2.018945  0  0  0.172566  0  2.525848  0  0  0.197148  0  2.474987  0  0  0.152904  0.156259  0  2.55977  0
Ag  Ag3  1  0.68104543  0.87824584  0.02220653  1  0  0.246889  0  2.018894  0  0  0.172572  0  2.525801  0  0  0.197155  0  2.474934  0  0  0.152882  0.156264  0  2.559713  0
H  H4  1  0.28857738  0.59129396  0.81029490  1  0  0.086999  0  0.978396  0  0  0.093017  0  1.0538  0  0  0.09568  0  1.050251  0  0  0.110514  0.090662  0  1.05679  0
H  H5  1  0.71142658  0.40870324  0.18969896  1  0  0.087127  0  0.978318  0  0  0.093123  0  1.053752  0  0  0.095789  0  1.050199  0  0  0.110516  0.090768  0  1.056748  0
H  H6  1  0.92299620  0.44957701  0.60426194  1  0  0.095158  0  0.97391  0  0  0.106961  0  1.034858  0  0  0.108798  0  1.034455  0  0  0.10722  0.105551  0  1.035357  0
H  H7  1  0.07696789  0.55041331  0.39573166  1  0  0.095092  0  0.973943  0  0  0.106899  0  1.034901  0  0  0.108728  0  1.034516  0  0  0.107206  0.10549  0  1.0354  0
H  H8  1  0.57611636  0.66774632  0.43616965  1  0  0.110063  0  0.96545  0  0  0.118488  0  1.032299  0  0  0.121269  0  1.030667  0  0  0.113111  0.116275  0  1.033912  0
H  H9  1  0.42387253  0.33225766  0.56382262  1  0  0.110088  0  0.965586  0  0  0.118549  0  1.03239  0  0  0.121305  0  1.030787  0  0  0.113139  0.116338  0  1.033996  0
H  H10  1  0.97230488  0.76673760  0.63487543  1  0  0.092364  0  0.93139  0  0  0.106389  0  0.995238  0  0  0.10748  0  0.995168  0  0  0.107095  0.10516  0  0.995876  0
H  H11  1  0.02771112  0.23326839  0.36512093  1  0  0.092389  0  0.931339  0  0  0.106357  0  0.995243  0  0  0.107447  0  0.995174  0  0  0.107103  0.10513  0  0.99588  0
H  H12  1  0.06684801  0.78988408  0.47905003  1  0  0.080937  0  0.946275  0  0  0.090657  0  1.020312  0  0  0.091713  0  1.019805  0  0  0.100838  0.089357  0  1.021492  0
H  H13  1  0.93316671  0.21012873  0.52095051  1  0  0.080947  0  0.94627  0  0  0.090703  0  1.020271  0  0  0.091761  0  1.019762  0  0  0.100886  0.089398  0  1.02145  0
H  H14  1  0.46794842  0.93665865  0.33635810  1  0  0.083201  0  0.989534  0  0  0.092191  0  1.059881  0  0  0.09466  0  1.058833  0  0  0.079366  0.090334  0  1.060654  0
H  H15  1  0.53206540  0.06334737  0.66364982  1  0  0.08312  0  0.989651  0  0  0.092073  0  1.060036  0  0  0.094542  0  1.058988  0  0  0.079308  0.090213  0  1.060805  0
H  H16  1  0.22705567  0.88159804  0.71322010  1  0  0.083734  0  0.988999  0  0  0.092725  0  1.059381  0  0  0.095116  0  1.058622  0  0  0.080682  0.090806  0  1.060394  0
H  H17  1  0.77293966  0.11840893  0.28678838  1  0  0.083826  0  0.989093  0  0  0.092798  0  1.059474  0  0  0.095186  0  1.058718  0  0  0.080714  0.090881  0  1.060492  0
C  C18  1  0.41979827  0.58114594  0.73281827  1  0  0.154744  0  3.654745  0  0  0.098309  0  3.915976  0  0  0.111477  0  3.929724  0  0  0.127728  0.089697  0  3.906932  0
C  C19  1  0.58020682  0.41884543  0.26717668  1  0  0.154465  0  3.654406  0  0  0.097961  0  3.915649  0  0  0.111129  0  3.929402  0  0  0.127729  0.089354  0  3.906591  0
C  C20  1  0.74314953  0.51256161  0.62168733  1  0  -0.013677  0  3.778228  0  0  -0.046066  0  4.040224  0  0  -0.044181  0  4.061472  0  0  -0.015065  -0.047263  0  4.026284  0
C  C21  1  0.25681539  0.48742484  0.37831380  1  0  -0.01358  0  3.778333  0  0  -0.045996  0  4.040347  0  0  -0.044106  0  4.061596  0  0  -0.015101  -0.0472  0  4.02641  0
C  C22  1  0.57437813  0.61926321  0.53789203  1  0  -0.077414  0  3.694008  0  0  -0.114316  0  3.951551  0  0  -0.11309  0  3.970989  0  0  -0.006543  -0.115372  0  3.938879  0
C  C23  1  0.42562739  0.38073790  0.46210560  1  0  -0.077576  0  3.69436  0  0  -0.114585  0  3.951952  0  0  -0.113336  0  3.971395  0  0  -0.006609  -0.115639  0  3.939271  0
C  C24  1  0.16136655  0.77977318  0.56169771  1  0  -0.041331  0  3.64377  0  0  -0.105303  0  3.886566  0  0  -0.101028  0  3.896899  0  0  -0.050889  -0.107827  0  3.879736  0
C  C25  1  0.83863825  0.22023183  0.43830301  1  0  -0.041589  0  3.644  0  0  -0.105476  0  3.886614  0  0  -0.101202  0  3.89695  0  0  -0.051007  -0.108  0  3.879779  0
C  C26  1  0.32972960  0.89612334  0.52851604  1  0  0.063013  0  3.755731  0  0  0.083732  0  3.989352  0  0  0.082834  0  4.013964  0  0  -0.016593  0.0845  0  3.972228  0
C  C27  1  0.67029254  0.10388656  0.47148303  1  0  0.063068  0  3.755365  0  0  0.083693  0  3.989068  0  0  0.082795  0  4.013684  0  0  -0.016563  0.084463  0  3.971942  0
C  C28  1  0.48271220  0.96385947  0.40861519  1  0  -0.111935  0  3.751639  0  0  -0.128607  0  3.994215  0  0  -0.131509  0  4.016392  0  0  -0.09882  -0.126425  0  3.97903  0
C  C29  1  0.51730318  0.03613878  0.59139798  1  0  -0.111788  0  3.751559  0  0  -0.128373  0  3.994106  0  0  -0.131276  0  4.016288  0  0  -0.09877  -0.126187  0  3.978906  0
C  C30  1  0.34754363  0.93315438  0.61970053  1  0  -0.107658  0  3.750218  0  0  -0.125012  0  3.992111  0  0  -0.127747  0  4.014526  0  0  -0.099616  -0.123413  0  3.977417  0
C  C31  1  0.65248138  0.06685262  0.38030140  1  0  -0.107645  0  3.749944  0  0  -0.124943  0  3.991843  0  0  -0.127676  0  4.014254  0  0  -0.099592  -0.123349  0  3.977166  0
I  I32  1  0.87019200  0.13326282  0.81662071  1  0  -0.328323  0  1.605773  0  0  -0.254556  0  2.051565  0  0  -0.276317  0  2.016913  0  0  -0.152591  -0.239038  0  2.075391  0
I  I33  1  0.12980590  0.86673050  0.18338024  1  0  -0.328317  0  1.605767  0  0  -0.254562  0  2.051581  0  0  -0.276323  0  2.01693  0  0  -0.152592  -0.239041  0  2.075415  0
I  I34  1  0.23317731  0.29100968  0.08246649  1  0  -0.354988  0  1.650647  0  0  -0.283098  0  2.125012  0  0  -0.305456  0  2.089041  0  0  -0.156627  -0.266214  0  2.147395  0
I  I35  1  0.76681044  0.70898847  0.91752781  1  0  -0.35495  0  1.650624  0  0  -0.28307  0  2.125012  0  0  -0.305429  0  2.089038  0  0  -0.156624  -0.266177  0  2.147386  0
N  N36  1  0.64531503  0.49009315  0.74260379  1  0  -0.334575  0  3.319215  0  0  -0.258129  0  3.615435  0  0  -0.278495  0  3.632427  0  0  -0.375581  -0.244942  0  3.603747  0
N  N37  1  0.35467258  0.50990599  0.25739577  1  0  -0.334521  0  3.318899  0  0  -0.257988  0  3.615034  0  0  -0.278369  0  3.632043  0  0  -0.375544  -0.244795  0  3.603347  0
N  N38  1  0.36903943  0.66079103  0.61010568  1  0  -0.057723  0  3.568901  0  0  0.038135  0  3.779532  0  0  0.022969  0  3.806815  0  0  -0.243085  0.048143  0  3.760877  0
N  N39  1  0.63096399  0.33920910  0.38989171  1  0  -0.057436  0  3.568765  0  0  0.038536  0  3.779231  0  0  0.023375  0  3.806509  0  0  -0.243032  0.048543  0  3.760576  0
