# generated using pymatgen
data_CuH12Pd(C7N4)2
_symmetry_space_group_name_H-M   'P 1'
_cell_length_a   6.59869381
_cell_length_b   7.72224160
_cell_length_c   8.74506666
_cell_angle_alpha   113.07289083
_cell_angle_beta   94.97003284
_cell_angle_gamma   91.80795420
_symmetry_Int_Tables_number   1
_chemical_formula_structural   CuH12Pd(C7N4)2
_chemical_formula_sum   'Cu1 H12 Pd1 C14 N8'
_cell_volume   407.38757495
_cell_formula_units_Z   1
loop_
 _symmetry_equiv_pos_site_id
 _symmetry_equiv_pos_as_xyz
  1  'x, y, z'
loop_
 _atom_site_type_symbol
 _atom_site_label
 _atom_site_symmetry_multiplicity
 _atom_site_fract_x
 _atom_site_fract_y
 _atom_site_fract_z
 _atom_site_occupancy
 _atom_site_hle17_ddec_charge
 _atom_site_hle17_ddec_spin_density
 _atom_site_hle17_ddec_sum_bond_order
 _atom_site_hle17_magmom
 _atom_site_hse06_10hf_ddec_charge
 _atom_site_hse06_10hf_ddec_spin_density
 _atom_site_hse06_10hf_ddec_sum_bond_order
 _atom_site_hse06_10hf_magmom
 _atom_site_hse06_ddec_charge
 _atom_site_hse06_ddec_spin_density
 _atom_site_hse06_ddec_sum_bond_order
 _atom_site_hse06_magmom
 _atom_site_pbe_cm5_charge
 _atom_site_pbe_ddec_charge
 _atom_site_pbe_ddec_spin_density
 _atom_site_pbe_ddec_sum_bond_order
 _atom_site_pbe_magmom
Cu  Cu0  1  0.49999889  0.50000102  0.50000199  1  0.841916  -0.703909  2.018672  -0.528  0.803701  -0.777863  2.424437  -0.63  0.885373  -0.851036  2.361025  -0.721  0.822251  0.756806  -0.722255  2.465986  -0.566
H  H1  1  0.91418530  0.43816189  0.39027787  1  0.092778  -0.000206  0.966438  -0.001  0.098705  -0.000432  1.031619  -0.001  0.098798  -0.00033  1.032852  -0.001  0.120689  0.098504  -0.000492  1.030907  -0.001
H  H2  1  0.08581607  0.56184722  0.60972077  1  0.092855  -0.000205  0.966361  -0.001  0.09873  -0.000432  1.031582  -0.001  0.098824  -0.00033  1.032814  -0.001  0.12071  0.098528  -0.000491  1.030872  -0.001
H  H3  1  0.07707708  0.29635429  0.12386961  1  0.122843  -0.001277  0.946685  -0.001  0.122755  -0.000978  1.019201  -0.001  0.125755  -0.000589  1.017963  -0.001  0.114553  0.12069  -0.001367  1.019931  -0.001
H  H4  1  0.92292783  0.70364209  0.87612940  1  0.122862  -0.001276  0.946658  -0.001  0.122775  -0.000978  1.01917  -0.001  0.125774  -0.000589  1.017935  -0.001  0.114563  0.120713  -0.001368  1.019898  -0.001
H  H5  1  0.83483891  0.15113847  0.85304040  1  0.108498  -0.000675  0.963732  -0.001  0.115075  -9.5e-05  1.029565  0.0  0.116904  5.6e-05  1.028443  0.0  0.103558  0.113803  -0.000286  1.030577  -0.001
H  H6  1  0.16516252  0.84885226  0.14696215  1  0.108516  -0.000674  0.963675  -0.001  0.115063  -9.5e-05  1.029541  0.0  0.11689  5.6e-05  1.028421  0.0  0.103559  0.113791  -0.000286  1.030554  -0.001
H  H7  1  0.26233592  0.13932173  0.86855069  1  0.113511  -0.000128  0.956775  0.0  0.129681  -9.8e-05  1.029254  0.0  0.131768  -5.3e-05  1.027241  0.0  0.088603  0.128059  -0.000152  1.030886  0.0
H  H8  1  0.73766664  0.86068313  0.13145113  1  0.113509  -0.000127  0.956731  0.0  0.129652  -9.8e-05  1.029244  0.0  0.131739  -5.3e-05  1.027232  0.0  0.088601  0.128032  -0.000152  1.030876  0.0
H  H9  1  0.45396872  0.00949265  0.74670420  1  0.133149  -6.6e-05  0.9492  0.0  0.151127  -8e-06  1.012026  0.0  0.150569  -1.2e-05  1.014988  0.0  0.095123  0.151617  -2e-06  1.009869  0.0
H  H10  1  0.54602916  0.99051082  0.25329570  1  0.133115  -6.8e-05  0.949201  0.0  0.151092  -8e-06  1.012031  0.0  0.150543  -1.2e-05  1.014984  0.0  0.095119  0.151583  -2e-06  1.009875  0.0
H  H11  1  0.42235821  0.24276295  0.76760944  1  0.137802  -0.000147  0.944528  0.0  0.15826  -5.7e-05  1.003213  0.0  0.157662  -6.9e-05  1.005685  0.0  0.097491  0.15876  -4.6e-05  1.001429  0.0
H  H12  1  0.57764471  0.75724614  0.23239502  1  0.137774  -0.000147  0.944529  0.0  0.158238  -5.7e-05  1.003207  0.0  0.157641  -6.9e-05  1.00568  0.0  0.097466  0.15874  -4.6e-05  1.001421  0.0
Pd  Pd13  1  0.00000093  0.99999792  0.49999522  1  0.159683  -0.007067  3.532546  -0.011  0.159156  -0.003484  4.062787  -0.006  0.161086  -0.001254  4.022703  -0.004  0.643384  0.159067  -0.006406  4.091029  -0.007
C  C14  1  0.19659719  0.16841351  0.45689510  1  0.086778  0.012457  3.478154  0.0  0.07482  0.00145  3.815198  -0.006  0.091384  0.004665  3.818132  -0.003  -0.005405  0.06314  -0.001316  3.814585  -0.009
C  C15  1  0.80339539  0.83158153  0.54309353  1  0.086727  0.012455  3.477987  0.0  0.074772  0.00145  3.81503  -0.006  0.091337  0.004666  3.817963  -0.003  -0.005455  0.063094  -0.001316  3.814418  -0.009
C  C16  1  0.82979351  0.21771381  0.58337112  1  0.022046  0.001992  3.54308  0.001  0.008324  0.001997  3.895606  0.001  0.020367  0.002135  3.898052  0.001  -0.041865  0.000124  0.001674  3.894466  0.001
C  C17  1  0.17020190  0.78227838  0.41662013  1  0.022074  0.001982  3.543612  0.001  0.008351  0.001996  3.896149  0.001  0.020391  0.002133  3.898592  0.001  -0.041804  0.00015  0.001672  3.895005  0.001
C  C18  1  0.82300577  0.37306713  0.27028727  1  0.097065  0.009338  3.677326  0.002  0.064649  0.001758  3.933255  -0.001  0.068392  0.00465  3.957499  0.002  0.057402  0.062573  -0.000615  3.916997  -0.004
C  C19  1  0.17699362  0.62693633  0.72971044  1  0.097087  0.009352  3.677164  0.002  0.064721  0.001757  3.933071  -0.001  0.068465  0.004649  3.957313  0.002  0.057449  0.06265  -0.000615  3.916806  -0.004
C  C20  1  0.91115574  0.29313825  0.12079520  1  -0.054612  -0.009572  3.683625  -0.011  -0.064263  -0.004012  3.925292  -0.005  -0.068423  -0.003727  3.94642  -0.005  -0.058617  -0.061283  -0.004332  3.910844  -0.005
C  C21  1  0.08884917  0.70685812  0.87920496  1  -0.054674  -0.009585  3.683628  -0.011  -0.06432  -0.004011  3.925267  -0.005  -0.068481  -0.003726  3.946398  -0.005  -0.058649  -0.061345  -0.004332  3.910822  -0.005
C  C22  1  0.77975259  0.21548545  0.97534985  1  -0.092641  0.017113  3.630485  0.01  -0.109422  0.006385  3.858583  0.003  -0.111398  0.007165  3.878896  0.004  -0.056557  -0.108257  0.005577  3.845114  0.003
C  C23  1  0.22024754  0.78450812  0.02465018  1  -0.092637  0.017132  3.630394  0.01  -0.109433  0.006385  3.858507  0.003  -0.111407  0.007165  3.878817  0.004  -0.056533  -0.108265  0.005577  3.845038  0.003
C  C24  1  0.56809884  0.22265870  0.98676727  1  0.284077  -0.011036  3.690362  -0.015  0.296968  -0.004896  3.937381  -0.008  0.30095  -0.003888  3.957482  -0.006  0.135609  0.294019  -0.005958  3.92373  -0.009
C  C25  1  0.43190176  0.77734052  0.01323475  1  0.284036  -0.011048  3.690326  -0.015  0.296993  -0.004897  3.937228  -0.008  0.300976  -0.003888  3.957329  -0.006  0.135573  0.294048  -0.005959  3.923574  -0.009
C  C26  1  0.41700865  0.14849643  0.83453903  1  -0.38208  0.00053  3.700599  0.001  -0.467436  -5.5e-05  3.939491  0.0  -0.469263  -5.5e-05  3.94898  0.0  -0.24485  -0.46599  -5.9e-05  3.932961  0.0
C  C27  1  0.58299229  0.85150702  0.16546334  1  -0.381991  0.000532  3.700487  0.001  -0.467345  -5.4e-05  3.939382  0.0  -0.469179  -5.5e-05  3.948864  0.0  -0.244805  -0.465903  -5.9e-05  3.932858  0.0
N  N28  1  0.30952597  0.28072927  0.44439847  1  -0.418111  -0.054907  3.18302  -0.069  -0.383579  -0.040163  3.504393  -0.052  -0.409001  -0.034603  3.512333  -0.047  -0.39438  -0.36947  -0.042764  3.501085  -0.053
N  N29  1  0.69047415  0.71926431  0.55559928  1  -0.418076  -0.05491  3.182916  -0.069  -0.383549  -0.040166  3.504306  -0.052  -0.408971  -0.034606  3.512245  -0.047  -0.394336  -0.369442  -0.042767  3.501003  -0.053
N  N30  1  0.73310441  0.35007078  0.62806158  1  -0.429781  0.000709  2.913788  -0.001  -0.400895  0.001178  3.200285  -0.001  -0.416674  0.001297  3.210562  -0.001  -0.368143  -0.391306  0.000907  3.194062  -0.001
N  N31  1  0.26689256  0.64993974  0.37194757  1  -0.429803  0.000715  2.914333  -0.001  -0.400885  0.001178  3.200751  -0.001  -0.416674  0.001297  3.211057  -0.001  -0.368219  -0.391295  0.000908  3.194525  -0.001
N  N32  1  0.62124291  0.37367471  0.27323083  1  -0.134499  -0.097695  3.322476  -0.126  -0.100252  -0.064948  3.629205  -0.09  -0.127786  -0.050245  3.658965  -0.075  -0.199262  -0.084096  -0.07366  3.6102  -0.097
N  N33  1  0.37876247  0.62632731  0.72677132  1  -0.134546  -0.097713  3.322519  -0.126  -0.100316  -0.06495  3.62925  -0.09  -0.12785  -0.050247  3.659009  -0.075  -0.19932  -0.084158  -0.073662  3.61024  -0.097
N  N34  1  0.49305464  0.29978299  0.13503518  1  -0.187637  -0.010936  2.955866  -0.012  -0.175962  -0.006348  3.232491  -0.006  -0.183245  -0.000248  3.253001  0.0  -0.176763  -0.168844  -0.012774  3.217708  -0.012
N  N35  1  0.50694596  0.70021623  0.86496684  1  -0.187611  -0.010933  2.955904  -0.012  -0.175953  -0.00635  3.232512  -0.006  -0.183235  -0.000249  3.253016  0.0  -0.176743  -0.168838  -0.012777  3.217731  -0.012
