# generated using pymatgen
data_CuH8C7IN2O
_symmetry_space_group_name_H-M   'P 1'
_cell_length_a   7.34422473
_cell_length_b   7.97820454
_cell_length_c   8.83161073
_cell_angle_alpha   111.44577885
_cell_angle_beta   100.40522730
_cell_angle_gamma   107.85538294
_symmetry_Int_Tables_number   1
_chemical_formula_structural   CuH8C7IN2O
_chemical_formula_sum   'Cu2 H16 C14 I2 N4 O2'
_cell_volume   432.70318890
_cell_formula_units_Z   2
loop_
 _symmetry_equiv_pos_site_id
 _symmetry_equiv_pos_as_xyz
  1  'x, y, z'
loop_
 _atom_site_type_symbol
 _atom_site_label
 _atom_site_symmetry_multiplicity
 _atom_site_fract_x
 _atom_site_fract_y
 _atom_site_fract_z
 _atom_site_occupancy
 _atom_site_hle17_bader_spin_density
 _atom_site_hle17_ddec_charge
 _atom_site_hle17_ddec_spin_density
 _atom_site_hle17_ddec_sum_bond_order
 _atom_site_hle17_magmom
 _atom_site_hse06_10hf_bader_spin_density
 _atom_site_hse06_10hf_ddec_charge
 _atom_site_hse06_10hf_ddec_spin_density
 _atom_site_hse06_10hf_ddec_sum_bond_order
 _atom_site_hse06_10hf_magmom
 _atom_site_hse06_bader_spin_density
 _atom_site_hse06_ddec_charge
 _atom_site_hse06_ddec_spin_density
 _atom_site_hse06_ddec_sum_bond_order
 _atom_site_hse06_magmom
 _atom_site_pbe_bader_spin_density
 _atom_site_pbe_cm5_charge
 _atom_site_pbe_ddec_charge
 _atom_site_pbe_ddec_spin_density
 _atom_site_pbe_ddec_sum_bond_order
 _atom_site_pbe_magmom
Cu  Cu0  1  0.68812985  0.57192068  0.47252115  1  0  0.285407  0  2.083402  0  0  0.179575  0  2.556309  0  0  0.184962  0  2.5092  0  0  0.369457  0.179625  0  2.585294  0
Cu  Cu1  1  0.31186875  0.42807903  0.52747733  1  0  0.285364  0  2.083366  0  0  0.179536  0  2.556255  0  0  0.184901  0  2.509141  0  0  0.369436  0.179586  0  2.585237  0
H  H2  1  0.39998941  0.13584757  0.53703572  1  0  0.314973  0  0.953944  0  0  0.288596  0  1.042258  0  0  0.300382  0  1.028556  0  0  0.266438  0.280192  0  1.051843  0
H  H3  1  0.60001258  0.86415364  0.46296380  1  0  0.314952  0  0.953966  0  0  0.288575  0  1.042282  0  0  0.300363  0  1.028578  0  0  0.266438  0.280178  0  1.051864  0
H  H4  1  0.88752470  0.30541563  0.47849869  1  0  0.084072  0  0.969345  0  0  0.086253  0  1.047761  0  0  0.090176  0  1.043047  0  0  0.102031  0.083315  0  1.051303  0
H  H5  1  0.11247548  0.69459141  0.52150475  1  0  0.084057  0  0.969612  0  0  0.086265  0  1.047978  0  0  0.090169  0  1.043282  0  0  0.102056  0.083327  0  1.051525  0
H  H6  1  0.59908501  0.40413557  0.09072457  1  0  0.069137  0  0.969269  0  0  0.07576  0  1.039556  0  0  0.078717  0  1.036736  0  0  0.099873  0.073486  0  1.04172  0
H  H7  1  0.40089884  0.59585516  0.90926970  1  0  0.069089  0  0.969427  0  0  0.075728  0  1.039691  0  0  0.078679  0  1.036882  0  0  0.099856  0.073456  0  1.041852  0
H  H8  1  0.64124243  0.13450802  0.86399971  1  0  0.10859  0  0.949062  0  0  0.116338  0  1.010337  0  0  0.11997  0  1.009428  0  0  0.10093  0.113716  0  1.011131  0
H  H9  1  0.35875402  0.86548290  0.13599210  1  0  0.108663  0  0.94919  0  0  0.11642  0  1.010431  0  0  0.12005  0  1.009525  0  0  0.100977  0.113793  0  1.011252  0
H  H10  1  0.81022806  0.93901376  0.95099483  1  0  0.095303  0  0.963062  0  0  0.104526  0  1.029518  0  0  0.107014  0  1.027928  0  0  0.102023  0.102548  0  1.030957  0
H  H11  1  0.18978423  0.06098901  0.04900910  1  0  0.095304  0  0.963033  0  0  0.104533  0  1.029476  0  0  0.107019  0  1.027887  0  0  0.102039  0.102557  0  1.030912  0
H  H12  1  0.02395984  0.74432964  0.22617058  1  0  0.134083  0  0.961069  0  0  0.148804  0  1.028112  0  0  0.152159  0  1.026771  0  0  0.089074  0.146341  0  1.029097  0
H  H13  1  0.97604450  0.25567744  0.77383466  1  0  0.134046  0  0.961096  0  0  0.148769  0  1.028139  0  0  0.152127  0  1.026792  0  0  0.089056  0.146304  0  1.02912  0
H  H14  1  0.82979474  0.73573569  0.06479742  1  0  0.111254  0  1.003112  0  0  0.130117  0  1.069892  0  0  0.131775  0  1.070805  0  0  0.076851  0.128918  0  1.069169  0
H  H15  1  0.17021418  0.26426559  0.93520435  1  0  0.111273  0  1.003097  0  0  0.130127  0  1.069876  0  0  0.131786  0  1.07079  0  0  0.076851  0.128916  0  1.069168  0
H  H16  1  0.79283733  0.74719402  0.25985391  1  0  0.115823  0  0.97738  0  0  0.127932  0  1.057135  0  0  0.132282  0  1.0534  0  0  0.086095  0.124691  0  1.059734  0
H  H17  1  0.20716607  0.25280723  0.74014471  1  0  0.11586  0  0.977391  0  0  0.127961  0  1.057139  0  0  0.132315  0  1.0534  0  0  0.08609  0.12472  0  1.059733  0
C  C18  1  0.87476628  0.11666449  0.22394580  1  0  -0.039837  0  3.772001  0  0  -0.014415  0  4.003605  0  0  -0.022314  0  4.0251  0  0  -0.00628  -0.009677  0  3.98975  0
C  C19  1  0.12523939  0.88334256  0.77606304  1  0  -0.039797  0  3.772161  0  0  -0.014304  0  4.003718  0  0  -0.022199  0  4.025203  0  0  -0.006273  -0.009567  0  3.989864  0
C  C20  1  0.84062393  0.26760338  0.34176387  1  0  0.087181  0  3.663315  0  0  0.046143  0  3.917073  0  0  0.056036  0  3.927618  0  0  0.034809  0.038849  0  3.911622  0
C  C21  1  0.15937079  0.73239341  0.65822736  1  0  0.087319  0  3.663337  0  0  0.046275  0  3.91702  0  0  0.056161  0  3.927613  0  0  0.034877  0.038978  0  3.911573  0
C  C22  1  0.67660156  0.31977594  0.12477236  1  0  0.122867  0  3.677179  0  0  0.091511  0  3.926032  0  0  0.099418  0  3.941699  0  0  0.035599  0.086177  0  3.915976  0
C  C23  1  0.32339385  0.68020908  0.87521846  1  0  0.122973  0  3.676967  0  0  0.091596  0  3.925865  0  0  0.099506  0  3.941524  0  0  0.035647  0.086263  0  3.915808  0
C  C24  1  0.69957956  0.16855340  0.99903989  1  0  -0.101325  0  3.732226  0  0  -0.111418  0  3.982123  0  0  -0.118683  0  4.003033  0  0  -0.085618  -0.107016  0  3.968673  0
C  C25  1  0.30041782  0.83145360  0.00096422  1  0  -0.101486  0  3.732195  0  0  -0.11159  0  3.982131  0  0  -0.118851  0  4.003037  0  0  -0.085666  -0.107198  0  3.968685  0
C  C26  1  0.79548302  0.06176509  0.04796462  1  0  -0.039142  0  3.682748  0  0  -0.066702  0  3.927759  0  0  -0.061681  0  3.944914  0  0  -0.06938  -0.070165  0  3.916799  0
C  C27  1  0.20451466  0.93822880  0.95202612  1  0  -0.039066  0  3.68314  0  0  -0.066633  0  3.928113  0  0  -0.061613  0  3.945267  0  0  -0.069405  -0.070096  0  3.91715  0
C  C28  1  0.99167288  0.01892109  0.28409272  1  0  0.267001  0  3.656376  0  0  0.255979  0  3.915551  0  0  0.270678  0  3.927723  0  0  0.127862  0.246326  0  3.907399  0
C  C29  1  0.00832952  0.98108147  0.71591864  1  0  0.266984  0  3.656374  0  0  0.255866  0  3.915651  0  0  0.270572  0  3.927819  0  0  0.127861  0.246213  0  3.9075  0
C  C30  1  0.90769225  0.79975786  0.20386816  1  0  -0.369578  0  3.680067  0  0  -0.445616  0  3.91419  0  0  -0.452221  0  3.918878  0  0  -0.248839  -0.440644  0  3.910968  0
C  C31  1  0.09231211  0.20023898  0.79613027  1  0  -0.369634  0  3.680124  0  0  -0.445624  0  3.914247  0  0  -0.452236  0  3.918927  0  0  -0.248837  -0.440644  0  3.911036  0
I  I32  1  0.66729271  0.45164958  0.71527567  1  0  -0.439787  0  1.455569  0  0  -0.383122  0  1.852831  0  0  -0.401365  0  1.81926  0  0  -0.164459  -0.3697  0  1.874238  0
I  I33  1  0.33270964  0.54835600  0.28472876  1  0  -0.439772  0  1.455593  0  0  -0.383088  0  1.852824  0  0  -0.40133  0  1.819249  0  0  -0.164446  -0.36966  0  1.874231  0
N  N34  1  0.74129480  0.36662469  0.29426701  1  0  -0.273049  0  3.369937  0  0  -0.195182  0  3.656663  0  0  -0.207648  0  3.664742  0  0  -0.361474  -0.187797  0  3.651324  0
N  N35  1  0.25869801  0.63337786  0.70573377  1  0  -0.273117  0  3.370041  0  0  -0.195269  0  3.656806  0  0  -0.207725  0  3.664862  0  0  -0.361499  -0.187884  0  3.651466  0
N  N36  1  0.16550906  0.13393619  0.40588604  1  0  -0.147867  0  3.200959  0  0  -0.099374  0  3.513959  0  0  -0.104197  0  3.513772  0  0  -0.279162  -0.097693  0  3.514262  0
N  N37  1  0.83448541  0.86606350  0.59410951  1  0  -0.148044  0  3.200832  0  0  -0.09954  0  3.513906  0  0  -0.10437  0  3.513729  0  0  -0.279233  -0.097857  0  3.51421  0
O  O38  1  0.26512509  0.02876916  0.45598329  1  0  -0.38508  0  2.068619  0  0  -0.335709  0  2.28677  0  0  -0.355446  0  2.282223  0  0  -0.275838  -0.321489  0  2.289779  0
O  O39  1  0.73487115  0.97123492  0.54401627  1  0  -0.384995  0  2.068563  0  0  -0.335598  0  2.286671  0  0  -0.355339  0  2.28213  0  0  -0.275817  -0.321388  0  2.289687  0
