# generated using pymatgen
data_CuH10(CN)12
_symmetry_space_group_name_H-M   'P 1'
_cell_length_a   6.26203276
_cell_length_b   7.38422221
_cell_length_c   9.13525738
_cell_angle_alpha   103.63217168
_cell_angle_beta   99.16594069
_cell_angle_gamma   107.77789064
_symmetry_Int_Tables_number   1
_chemical_formula_structural   CuH10(CN)12
_chemical_formula_sum   'Cu1 H10 C12 N12'
_cell_volume   378.51091609
_cell_formula_units_Z   1
loop_
 _symmetry_equiv_pos_site_id
 _symmetry_equiv_pos_as_xyz
  1  'x, y, z'
loop_
 _atom_site_type_symbol
 _atom_site_label
 _atom_site_symmetry_multiplicity
 _atom_site_fract_x
 _atom_site_fract_y
 _atom_site_fract_z
 _atom_site_occupancy
 _atom_site_hle17_ddec_charge
 _atom_site_hle17_ddec_spin_density
 _atom_site_hle17_ddec_sum_bond_order
 _atom_site_hle17_magmom
 _atom_site_hse06_10hf_ddec_charge
 _atom_site_hse06_10hf_ddec_spin_density
 _atom_site_hse06_10hf_ddec_sum_bond_order
 _atom_site_hse06_10hf_magmom
 _atom_site_hse06_ddec_charge
 _atom_site_hse06_ddec_spin_density
 _atom_site_hse06_ddec_sum_bond_order
 _atom_site_hse06_magmom
 _atom_site_pbe_cm5_charge
 _atom_site_pbe_ddec_charge
 _atom_site_pbe_ddec_spin_density
 _atom_site_pbe_ddec_sum_bond_order
 _atom_site_pbe_magmom
Cu  Cu0  1  0.00000650  0.99999596  0.99999972  1  0.892876  0.696781  1.934975  0.517  0.871767  0.778858  2.335788  0.629  0.949963  0.841103  2.273755  0.709  0.819949  0.823266  0.733183  2.379145  0.574
H  H1  1  0.49360909  0.08361671  0.15166070  1  0.076941  3.9e-05  0.941267  0.0  0.081071  0.000318  1.011569  0.0  0.081426  0.000269  1.009275  0.0  0.126717  0.080644  0.00032  1.013105  0.0
H  H2  1  0.50640653  0.91642628  0.84835041  1  0.077021  3.8e-05  0.941115  0.0  0.081121  0.000318  1.01148  0.0  0.081477  0.000269  1.009183  0.0  0.126666  0.080689  0.00032  1.01302  0.0
H  H3  1  0.92268238  0.12085938  0.31943815  1  0.089595  0.001373  0.958628  0.002  0.090341  0.0011  1.034991  0.001  0.0923  0.000729  1.03186  0.001  0.116561  0.088963  0.001457  1.036979  0.002
H  H4  1  0.07732296  0.87914195  0.68055928  1  0.089559  0.001373  0.958613  0.002  0.09032  0.001101  1.034973  0.001  0.092273  0.000729  1.031859  0.001  0.116546  0.08894  0.001457  1.036966  0.002
H  H5  1  0.16618454  0.25166247  0.59067648  1  0.122043  5.2e-05  0.98129  0.0  0.128503  0.00033  1.045116  0.0  0.1319  0.000265  1.044898  0.0  0.105684  0.126338  0.000327  1.04508  0.0
H  H6  1  0.83380237  0.74832959  0.40933128  1  0.122061  4.8e-05  0.981329  0.0  0.128536  0.00033  1.045122  0.0  0.131933  0.000264  1.044902  0.0  0.105703  0.126367  0.000327  1.04509  0.0
H  H7  1  0.79140131  0.32229181  0.67280529  1  0.327384  9.3e-05  0.906667  0.0  0.306424  3.1e-05  0.975758  0.0  0.3135  -6e-06  0.97054  0.0  0.304826  0.301336  7.6e-05  0.979548  0.0
H  H8  1  0.20860335  0.67770797  0.32719723  1  0.327357  9.4e-05  0.90667  0.0  0.30641  3.2e-05  0.975743  0.0  0.313484  -6e-06  0.970529  0.0  0.304853  0.301323  7.6e-05  0.979537  0.0
H  H9  1  0.55546309  0.31304451  0.75390764  1  0.32898  1e-05  0.912166  0.0  0.314273  -1.8e-05  0.972101  0.0  0.319513  -2.4e-05  0.969413  0.0  0.301449  0.31046  2e-06  0.974134  0.0
H  H10  1  0.44453193  0.68695956  0.24610010  1  0.328851  1e-05  0.912345  0.0  0.314209  -1.8e-05  0.972199  0.0  0.319428  -2.4e-05  0.969539  0.0  0.301426  0.31041  2e-06  0.974213  0.0
C  C11  1  0.42380412  0.12423313  0.25136439  1  0.312679  -0.011224  3.728026  -0.006  0.266471  -0.0029  4.009668  -0.001  0.287108  -0.004259  4.021886  -0.002  0.173425  0.253308  -0.001945  4.000101  0.0
C  C12  1  0.57620541  0.87579057  0.74863461  1  0.312677  -0.011237  3.727923  -0.006  0.266494  -0.002897  4.009523  -0.001  0.287132  -0.004259  4.021736  -0.002  0.173491  0.253334  -0.001945  3.999956  0.0
C  C13  1  0.10630123  0.14172619  0.34375777  1  0.166711  -0.00526  3.728381  -0.003  0.136355  -0.000516  3.984674  0.0  0.150974  -0.001976  4.002225  -0.001  0.044248  0.127096  0.000468  3.972857  0.001
C  C14  1  0.89369978  0.85827224  0.65622985  1  0.166628  -0.005274  3.728677  -0.003  0.13626  -0.000508  3.984972  0.0  0.150872  -0.001978  4.002525  -0.001  0.044171  0.127003  0.000469  3.973145  0.001
C  C15  1  0.47915200  0.23984931  0.51607636  1  0.521098  -0.005817  3.831761  -0.004  0.495064  -0.002307  4.092729  -0.001  0.51871  -0.002625  4.102523  -0.002  0.240774  0.478999  -0.002032  4.085897  -0.001
C  C16  1  0.52085458  0.76015504  0.48391961  1  0.520885  -0.005822  3.832078  -0.004  0.494933  -0.002308  4.092937  -0.001  0.518576  -0.002624  4.102734  -0.002  0.240724  0.47887  -0.002031  4.0861  -0.001
C  C17  1  0.24084452  0.21340214  0.49351330  1  -0.276005  0.008756  3.678063  0.01  -0.285476  0.003791  3.919735  0.005  -0.300721  0.00312  3.938657  0.004  -0.097016  -0.275796  0.004483  3.907193  0.005
C  C18  1  0.75915145  0.78659609  0.50648574  1  -0.275781  0.00877  3.678574  0.01  -0.285298  0.003786  3.920189  0.005  -0.30054  0.003118  3.939111  0.004  -0.09694  -0.275618  0.004482  3.907638  0.005
C  C19  1  0.14287587  0.63613111  0.89922664  1  0.535474  -0.008662  3.950024  -0.001  0.50358  0.001678  4.23277  0.008  0.534747  -0.000387  4.240128  0.006  0.324444  0.482142  0.003439  4.227933  0.009
C  C20  1  0.85710829  0.36385371  0.10076187  1  0.535842  -0.008609  3.950149  -0.001  0.50398  0.001693  4.232884  0.008  0.53514  -0.000378  4.240237  0.006  0.32464  0.48254  0.003447  4.228051  0.009
C  C21  1  0.25213199  0.35942102  0.88576192  1  0.460883  -0.007923  4.015611  -0.006  0.427462  -0.00213  4.312903  -0.002  0.451958  -0.002157  4.324369  -0.001  0.286997  0.410896  -0.002058  4.305238  -0.002
C  C22  1  0.74788457  0.64055642  0.11425071  1  0.461456  -0.007916  4.015889  -0.006  0.428097  -0.002116  4.313125  -0.002  0.452587  -0.00217  4.324576  -0.001  0.287374  0.411527  -0.002059  4.30546  -0.002
N  N23  1  0.19632148  0.09497867  0.22040794  1  -0.384952  0.092391  3.308329  0.119  -0.341747  0.062645  3.610415  0.087  -0.381751  0.04996  3.63517  0.074  -0.363443  -0.316513  0.069921  3.594303  0.092
N  N24  1  0.80368476  0.90502872  0.77958202  1  -0.385046  0.092428  3.308179  0.119  -0.341878  0.062656  3.610296  0.087  -0.381884  0.04997  3.635048  0.074  -0.36349  -0.31664  0.069938  3.594178  0.092
N  N25  1  0.56843096  0.19563889  0.39165515  1  -0.448173  0.018995  2.95573  0.023  -0.413127  0.007065  3.224197  0.009  -0.434279  0.004426  3.233864  0.006  -0.330797  -0.397884  0.010268  3.216098  0.012
N  N26  1  0.43158936  0.80438345  0.60834371  1  -0.448126  0.01901  2.955964  0.023  -0.413112  0.007068  3.22439  0.009  -0.434267  0.004425  3.234064  0.006  -0.330725  -0.397863  0.010273  3.216285  0.012
N  N27  1  0.62261437  0.30990126  0.65900935  1  -0.645289  -0.003258  3.107334  -0.002  -0.606888  -0.001961  3.33179  -0.001  -0.629493  -0.002223  3.332777  -0.001  -0.563275  -0.59132  -0.001695  3.331167  -0.001
N  N28  1  0.37738677  0.69010588  0.34099640  1  -0.644964  -0.00326  3.107507  -0.002  -0.606651  -0.001962  3.331882  -0.001  -0.629229  -0.002219  3.332912  -0.001  -0.563245  -0.591099  -0.001695  3.331234  -0.001
N  N29  1  0.13416259  0.79662914  0.94143423  1  -0.593494  0.055144  3.006557  0.068  -0.571066  0.040381  3.328616  0.052  -0.602121  0.033843  3.329924  0.047  -0.40878  -0.551877  0.044747  3.329599  0.055
N  N30  1  0.86579411  0.20334789  0.05855622  1  -0.593707  0.05511  3.006529  0.068  -0.571322  0.040369  3.328636  0.052  -0.602377  0.033833  3.329935  0.047  -0.408821  -0.55213  0.044742  3.329608  0.055
N  N31  1  0.13274783  0.45781358  0.83491535  1  -0.463715  0.009256  3.334523  0.013  -0.404703  0.002298  3.586449  0.004  -0.428452  0.000766  3.589283  0.002  -0.305718  -0.388167  0.003764  3.583873  0.005
N  N32  1  0.86723403  0.54216107  0.16505012  1  -0.463985  0.009267  3.335567  0.013  -0.405069  0.002299  3.587582  0.004  -0.428798  0.000771  3.590406  0.002  -0.305927  -0.388524  0.003769  3.585002  0.005
N  N33  1  0.34588429  0.25009651  0.91370640  1  -0.576622  0.007608  2.639551  0.01  -0.562374  0.000747  2.903089  0.002  -0.580234  -0.000278  2.9088  0.001  -0.366097  -0.550217  0.001849  2.899468  0.003
N  N34  1  0.65411590  0.74988495  0.08632707  1  -0.577139  0.007617  2.639245  0.01  -0.562961  0.000744  2.902793  0.002  -0.580858  -0.000269  2.908551  0.001  -0.366394  -0.550801  0.001856  2.899173  0.003
