# generated using pymatgen
data_GdH5(C3O4)2
_symmetry_space_group_name_H-M   'P 1'
_cell_length_a   5.85581876
_cell_length_b   9.46642701
_cell_length_c   10.25214797
_cell_angle_alpha   88.09434917
_cell_angle_beta   73.67993462
_cell_angle_gamma   77.88586634
_symmetry_Int_Tables_number   1
_chemical_formula_structural   GdH5(C3O4)2
_chemical_formula_sum   'Gd2 H10 C12 O16'
_cell_volume   533.06927282
_cell_formula_units_Z   2
loop_
 _symmetry_equiv_pos_site_id
 _symmetry_equiv_pos_as_xyz
  1  'x, y, z'
loop_
 _atom_site_type_symbol
 _atom_site_label
 _atom_site_symmetry_multiplicity
 _atom_site_fract_x
 _atom_site_fract_y
 _atom_site_fract_z
 _atom_site_occupancy
 _atom_site_hle17_bader_spin_density
 _atom_site_hle17_ddec_charge
 _atom_site_hle17_ddec_spin_density
 _atom_site_hle17_ddec_sum_bond_order
 _atom_site_hle17_magmom
 _atom_site_hse06_10hf_bader_spin_density
 _atom_site_hse06_10hf_ddec_charge
 _atom_site_hse06_10hf_ddec_spin_density
 _atom_site_hse06_10hf_ddec_sum_bond_order
 _atom_site_hse06_10hf_magmom
 _atom_site_hse06_bader_spin_density
 _atom_site_hse06_ddec_charge
 _atom_site_hse06_ddec_spin_density
 _atom_site_hse06_ddec_sum_bond_order
 _atom_site_hse06_magmom
 _atom_site_pbe_bader_spin_density
 _atom_site_pbe_cm5_charge
 _atom_site_pbe_ddec_charge
 _atom_site_pbe_ddec_spin_density
 _atom_site_pbe_ddec_sum_bond_order
 _atom_site_pbe_magmom
Gd  Gd0  1  0.65091805  0.05695915  0.29697618  1  0  2.163527  0  1.776542  0  0  2.069584  0  2.135112  0  0  2.124711  0  2.079012  0  0  1.467324  2.028559  0  2.177486  0
Gd  Gd1  1  0.34908987  0.94304244  0.70301467  1  0  2.16341  0  1.77666  0  0  2.069466  0  2.135261  0  0  2.124591  0  2.079163  0  0  1.467378  2.028494  0  2.177596  0
H  H2  1  0.28984088  0.88587866  0.24456337  1  0  0.46356  0  0.7969  0  0  0.442054  0  0.848629  0  0  0.451166  0  0.835303  0  0  0.330843  0.435545  0  0.858178  0
H  H3  1  0.71013867  0.11412278  0.75544961  1  0  0.463509  0  0.796931  0  0  0.44206  0  0.848601  0  0  0.451171  0  0.835276  0  0  0.33084  0.435554  0  0.858148  0
H  H4  1  0.26909410  0.89033109  0.40007314  1  0  0.441809  0  0.861777  0  0  0.40999  0  0.927134  0  0  0.42013  0  0.912496  0  0  0.308483  0.402904  0  0.937334  0
H  H5  1  0.73089834  0.10967904  0.59993460  1  0  0.441809  0  0.861774  0  0  0.409975  0  0.927159  0  0  0.420115  0  0.912522  0  0  0.308453  0.402887  0  0.937363  0
H  H6  1  0.32797574  0.31244524  0.21361421  1  0  0.44981  0  0.799054  0  0  0.435022  0  0.843886  0  0  0.442528  0  0.833228  0  0  0.337967  0.429754  0  0.851387  0
H  H7  1  0.67203138  0.68754871  0.78638965  1  0  0.449795  0  0.799036  0  0  0.435012  0  0.843893  0  0  0.442518  0  0.833236  0  0  0.337974  0.429748  0  0.851389  0
H  H8  1  0.24323814  0.17593397  0.16582445  1  0  0.455266  0  0.83431  0  0  0.423932  0  0.896371  0  0  0.436125  0  0.878606  0  0  0.305767  0.415233  0  0.909023  0
H  H9  1  0.75675241  0.82406646  0.83417605  1  0  0.455261  0  0.834316  0  0  0.423899  0  0.896409  0  0  0.436118  0  0.878614  0  0  0.305733  0.415205  0  0.909055  0
H  H10  1  0.72671727  0.55622900  0.35066713  1  0  0.127584  0  0.917507  0  0  0.137805  0  0.972826  0  0  0.142294  0  0.969706  0  0  0.119379  0.13451  0  0.975242  0
H  H11  1  0.27327846  0.44377686  0.64933239  1  0  0.127522  0  0.917544  0  0  0.137765  0  0.972852  0  0  0.142251  0  0.969738  0  0  0.119372  0.134477  0  0.975267  0
C  C12  1  0.84710289  0.53287047  0.41627458  1  0  -0.069495  0  3.667846  0  0  -0.105144  0  3.920673  0  0  -0.105088  0  3.937671  0  0  -0.068155  -0.105071  0  3.909298  0
C  C13  1  0.15288968  0.46713429  0.58372645  1  0  -0.069438  0  3.667855  0  0  -0.10514  0  3.920682  0  0  -0.105089  0  3.937682  0  0  -0.06816  -0.105067  0  3.909317  0
C  C14  1  0.93367718  0.64336777  0.46101303  1  0  -0.0339  0  3.684231  0  0  -0.023894  0  3.923956  0  0  -0.026314  0  3.941379  0  0  0.007278  -0.022548  0  3.912532  0
C  C15  1  0.06631399  0.35663591  0.53898729  1  0  -0.034083  0  3.684024  0  0  -0.023993  0  3.923798  0  0  -0.026403  0  3.941215  0  0  0.007286  -0.022646  0  3.912358  0
C  C16  1  0.84825497  0.79242581  0.41534701  1  0  0.715009  0  3.856902  0  0  0.665463  0  4.15877  0  0  0.701219  0  4.146656  0  0  0.226541  0.6411  0  4.166217  0
C  C17  1  0.15172890  0.20757348  0.58466435  1  0  0.715361  0  3.856407  0  0  0.665661  0  4.158506  0  0  0.701409  0  4.146402  0  0  0.226591  0.641309  0  4.165947  0
C  C18  1  0.08892154  0.61006973  0.54563148  1  0  -0.063206  0  3.723044  0  0  -0.050715  0  3.962738  0  0  -0.055357  0  3.982077  0  0  -0.003762  -0.047814  0  3.949863  0
C  C19  1  0.91107534  0.38993289  0.45436599  1  0  -0.063139  0  3.723178  0  0  -0.050729  0  3.962946  0  0  -0.055378  0  3.982284  0  0  -0.003735  -0.047821  0  3.950064  0
C  C20  1  0.18909755  0.72298008  0.59652872  1  0  0.641285  0  3.910477  0  0  0.590712  0  4.213615  0  0  0.624195  0  4.206298  0  0  0.200209  0.568195  0  4.217665  0
C  C21  1  0.81090214  0.27702468  0.40347410  1  0  0.641173  0  3.910434  0  0  0.590621  0  4.213573  0  0  0.62411  0  4.206258  0  0  0.200132  0.568089  0  4.217625  0
C  C22  1  0.91050211  0.95787419  0.98426187  1  0  0.571241  0  3.898186  0  0  0.527727  0  4.197967  0  0  0.55794  0  4.18925  0  0  0.231333  0.507237  0  4.20308  0
C  C23  1  0.08955107  0.04211023  0.01571335  1  0  0.571377  0  3.898396  0  0  0.528052  0  4.197952  0  0  0.558265  0  4.18923  0  0  0.231375  0.507559  0  4.20307  0
O  O24  1  0.97072599  0.90372838  0.86367790  1  0  -0.673391  0  2.088574  0  0  -0.622777  0  2.317641  0  0  -0.649478  0  2.308594  0  0  -0.346682  -0.603976  0  2.323297  0
O  O25  1  0.02928149  0.09627434  0.13630323  1  0  -0.673528  0  2.088425  0  0  -0.622961  0  2.317393  0  0  -0.649654  0  2.30834  0  0  -0.346718  -0.604151  0  2.323044  0
O  O26  1  0.94789519  0.82933000  0.29646132  1  0  -0.675176  0  1.959196  0  0  -0.636592  0  2.185846  0  0  -0.661119  0  2.174989  0  0  -0.356943  -0.619358  0  2.192904  0
O  O27  1  0.05210462  0.17066939  0.70353382  1  0  -0.675202  0  1.959235  0  0  -0.636585  0  2.186011  0  0  -0.661109  0  2.175158  0  0  -0.356985  -0.619365  0  2.193077  0
O  O28  1  0.66007382  0.87529945  0.49184766  1  0  -0.773053  0  2.144156  0  0  -0.731199  0  2.406711  0  0  -0.759807  0  2.39738  0  0  -0.407975  -0.710549  0  2.412165  0
O  O29  1  0.33992447  0.12470424  0.50815248  1  0  -0.773205  0  2.143765  0  0  -0.731337  0  2.406442  0  0  -0.759924  0  2.397068  0  0  -0.407992  -0.710687  0  2.411892  0
O  O30  1  0.13301167  0.85475864  0.56063213  1  0  -0.687604  0  2.047586  0  0  -0.632001  0  2.279821  0  0  -0.657335  0  2.270596  0  0  -0.356638  -0.614393  0  2.285817  0
O  O31  1  0.86697812  0.14524394  0.43937136  1  0  -0.687615  0  2.047501  0  0  -0.631988  0  2.279701  0  0  -0.657333  0  2.270485  0  0  -0.356615  -0.614351  0  2.285672  0
O  O32  1  0.32451797  0.68960875  0.67483987  1  0  -0.65639  0  1.944122  0  0  -0.618934  0  2.173331  0  0  -0.643381  0  2.165173  0  0  -0.362248  -0.60196  0  2.178501  0
O  O33  1  0.67546826  0.31039383  0.32516225  1  0  -0.656388  0  1.943996  0  0  -0.618914  0  2.17316  0  0  -0.643367  0  2.165005  0  0  -0.362246  -0.601942  0  2.178334  0
O  O34  1  0.72248789  0.94900424  0.07715060  1  0  -0.601331  0  2.040309  0  0  -0.562574  0  2.273359  0  0  -0.5858  0  2.26416  0  0  -0.353941  -0.546306  0  2.279307  0
O  O35  1  0.27755741  0.05097250  0.92284366  1  0  -0.601319  0  2.040667  0  0  -0.562621  0  2.27366  0  0  -0.585845  0  2.264459  0  0  -0.353989  -0.546366  0  2.27962  0
O  O36  1  0.37854376  0.90192264  0.30828881  1  0  -0.897256  0  1.877837  0  0  -0.857472  0  2.068172  0  0  -0.877327  0  2.038509  0  0  -0.645605  -0.843275  0  2.088791  0
O  O37  1  0.62144983  0.09808427  0.69171590  1  0  -0.897193  0  1.877894  0  0  -0.857461  0  2.068169  0  0  -0.877314  0  2.03851  0  0  -0.64556  -0.843264  0  2.088786  0
O  O38  1  0.37539985  0.20922547  0.19341050  1  0  -0.898212  0  1.841695  0  0  -0.860915  0  2.021164  0  0  -0.879239  0  1.988839  0  0  -0.633188  -0.847758  0  2.043995  0
O  O39  1  0.62458989  0.79076735  0.80659814  1  0  -0.898184  0  1.841657  0  0  -0.860852  0  2.021172  0  0  -0.879197  0  1.988797  0  0  -0.633121  -0.847691  0  2.043994  0
