# generated using pymatgen
data_CaH4C7O5
_symmetry_space_group_name_H-M   'P 1'
_cell_length_a   5.76843133
_cell_length_b   6.72215292
_cell_length_c   10.20157693
_cell_angle_alpha   107.78777860
_cell_angle_beta   93.48796915
_cell_angle_gamma   107.20890316
_symmetry_Int_Tables_number   1
_chemical_formula_structural   CaH4C7O5
_chemical_formula_sum   'Ca2 H8 C14 O10'
_cell_volume   354.79827041
_cell_formula_units_Z   2
loop_
 _symmetry_equiv_pos_site_id
 _symmetry_equiv_pos_as_xyz
  1  'x, y, z'
loop_
 _atom_site_type_symbol
 _atom_site_label
 _atom_site_symmetry_multiplicity
 _atom_site_fract_x
 _atom_site_fract_y
 _atom_site_fract_z
 _atom_site_occupancy
 _atom_site_hle17_bader_spin_density
 _atom_site_hle17_ddec_charge
 _atom_site_hle17_ddec_spin_density
 _atom_site_hle17_ddec_sum_bond_order
 _atom_site_hle17_magmom
 _atom_site_hse06_10hf_bader_spin_density
 _atom_site_hse06_10hf_ddec_charge
 _atom_site_hse06_10hf_ddec_spin_density
 _atom_site_hse06_10hf_ddec_sum_bond_order
 _atom_site_hse06_10hf_magmom
 _atom_site_hse06_bader_spin_density
 _atom_site_hse06_ddec_charge
 _atom_site_hse06_ddec_spin_density
 _atom_site_hse06_ddec_sum_bond_order
 _atom_site_hse06_magmom
 _atom_site_pbe_bader_spin_density
 _atom_site_pbe_cm5_charge
 _atom_site_pbe_ddec_charge
 _atom_site_pbe_ddec_spin_density
 _atom_site_pbe_ddec_sum_bond_order
 _atom_site_pbe_magmom
Ca  Ca0  1  0.34316648  0.68481421  0.94863307  1  0  1.555228  0  1.093536  0  0  1.423814  0  1.439636  0  0  1.468513  0  1.394351  0  0  0.904541  1.389472  0  1.472981  0
Ca  Ca1  1  0.65683854  0.31518705  0.05136807  1  0  1.555194  0  1.093597  0  0  1.423842  0  1.439609  0  0  1.468536  0  1.394324  0  0  0.904537  1.389488  0  1.472967  0
H  H2  1  0.30695169  0.59369267  0.40138659  1  0  0.110117  0  0.947894  0  0  0.122202  0  1.003983  0  0  0.125944  0  1.001639  0  0  0.11352  0.119566  0  1.005724  0
H  H3  1  0.69304751  0.40630696  0.59861304  1  0  0.110094  0  0.947907  0  0  0.122179  0  1.003999  0  0  0.125921  0  1.001655  0  0  0.113511  0.119544  0  1.005738  0
H  H4  1  0.36879317  0.75674326  0.65686869  1  0  0.109356  0  0.98348  0  0  0.120216  0  1.044197  0  0  0.123786  0  1.04178  0  0  0.116567  0.117611  0  1.046195  0
H  H5  1  0.63120838  0.24325801  0.34313233  1  0  0.109333  0  0.983518  0  0  0.120198  0  1.044226  0  0  0.123762  0  1.041814  0  0  0.116559  0.117592  0  1.046223  0
H  H6  1  0.75586147  0.63496757  0.80985525  1  0  0.431204  0  0.872468  0  0  0.40146  0  0.934602  0  0  0.412017  0  0.919188  0  0  0.305253  0.393861  0  0.945699  0
H  H7  1  0.24414058  0.36503039  0.19014414  1  0  0.431226  0  0.872449  0  0  0.401482  0  0.934582  0  0  0.412041  0  0.919165  0  0  0.305258  0.393883  0  0.945679  0
H  H8  1  0.72347990  0.86111829  0.80421323  1  0  0.431487  0  0.87197  0  0  0.398878  0  0.93884  0  0  0.409912  0  0.922763  0  0  0.302407  0.390947  0  0.950413  0
H  H9  1  0.27652104  0.13888134  0.19578548  1  0  0.431484  0  0.871972  0  0  0.398872  0  0.938849  0  0  0.40991  0  0.922763  0  0  0.30241  0.390942  0  0.950419  0
C  C10  1  0.98177855  0.95226789  0.42465369  1  0  0.045777  0  3.686428  0  0  0.046707  0  3.916864  0  0  0.047774  0  3.940315  0  0  0.010835  0.045966  0  3.900945  0
C  C11  1  0.01821207  0.04773675  0.57535055  1  0  0.045932  0  3.686341  0  0  0.046788  0  3.916807  0  0  0.047862  0  3.940252  0  0  0.010893  0.046046  0  3.900891  0
C  C12  1  0.09814027  0.79350877  0.36482586  1  0  -0.092076  0  3.721648  0  0  -0.078329  0  3.966581  0  0  -0.084098  0  3.9867  0  0  -0.003285  -0.074247  0  3.952864  0
C  C13  1  0.90186263  0.20650079  0.63517786  1  0  -0.092303  0  3.721878  0  0  -0.078511  0  3.966787  0  0  -0.084282  0  3.986907  0  0  -0.003308  -0.074428  0  3.953073  0
C  C14  1  0.22202778  0.71730454  0.44871233  1  0  -0.059257  0  3.724462  0  0  -0.083542  0  3.977281  0  0  -0.084554  0  3.996602  0  0  -0.075727  -0.082789  0  3.964217  0
C  C15  1  0.77796907  0.28269345  0.55128786  1  0  -0.059129  0  3.724526  0  0  -0.083427  0  3.977338  0  0  -0.084438  0  3.99666  0  0  -0.075695  -0.082673  0  3.964272  0
C  C16  1  0.25666272  0.81017747  0.59432171  1  0  -0.059589  0  3.726053  0  0  -0.088327  0  3.982386  0  0  -0.088182  0  4.001392  0  0  -0.075099  -0.088152  0  3.969466  0
C  C17  1  0.74333315  0.18982716  0.40567782  1  0  -0.059651  0  3.726014  0  0  -0.088394  0  3.982365  0  0  -0.088247  0  4.00137  0  0  -0.075156  -0.088218  0  3.969444  0
C  C18  1  0.83177932  0.01999357  0.34149671  1  0  -0.095385  0  3.682336  0  0  -0.081927  0  3.926195  0  0  -0.088118  0  3.945723  0  0  -0.003968  -0.077413  0  3.912806  0
C  C19  1  0.16821939  0.98000939  0.65850357  1  0  -0.095444  0  3.682419  0  0  -0.081973  0  3.926293  0  0  -0.088168  0  3.945826  0  0  -0.003988  -0.077458  0  3.912906  0
C  C20  1  0.11848725  0.71834250  0.21377186  1  0  0.679231  0  3.907417  0  0  0.619872  0  4.211595  0  0  0.654368  0  4.202613  0  0  0.230064  0.596089  0  4.217127  0
C  C21  1  0.88151008  0.28165216  0.78622865  1  0  0.679311  0  3.907252  0  0  0.619948  0  4.211429  0  0  0.65444  0  4.202453  0  0  0.230112  0.596158  0  4.216965  0
C  C22  1  0.73145893  0.90308455  0.18827643  1  0  0.700308  0  3.875854  0  0  0.648362  0  4.170097  0  0  0.684551  0  4.159586  0  0  0.232048  0.622862  0  4.177127  0
C  C23  1  0.26854549  0.09691507  0.81172143  1  0  0.700394  0  3.875859  0  0  0.648442  0  4.17009  0  0  0.684633  0  4.159577  0  0  0.232105  0.622942  0  4.177121  0
O  O24  1  0.19241718  0.86061670  0.15440608  1  0  -0.662642  0  2.045704  0  0  -0.595672  0  2.278278  0  0  -0.623172  0  2.269818  0  0  -0.320454  -0.575807  0  2.284136  0
O  O25  1  0.80758250  0.13937961  0.84559485  1  0  -0.662638  0  2.045633  0  0  -0.595689  0  2.278218  0  0  -0.623184  0  2.26976  0  0  -0.320487  -0.575819  0  2.284089  0
O  O26  1  0.07493411  0.51112928  0.14947720  1  0  -0.736317  0  2.038075  0  0  -0.672386  0  2.286344  0  0  -0.698977  0  2.274222  0  0  -0.358039  -0.653051  0  2.294331  0
O  O27  1  0.92506732  0.48886702  0.85052184  1  0  -0.736326  0  2.03786  0  0  -0.672391  0  2.286126  0  0  -0.698979  0  2.274009  0  0  -0.358063  -0.65306  0  2.294123  0
O  O28  1  0.70026874  0.01679156  0.11356679  1  0  -0.722198  0  2.006716  0  0  -0.660219  0  2.258432  0  0  -0.688258  0  2.247533  0  0  -0.375827  -0.639845  0  2.266233  0
O  O29  1  0.29972812  0.98320643  0.88643144  1  0  -0.722247  0  2.006721  0  0  -0.660272  0  2.258436  0  0  -0.688313  0  2.247536  0  0  -0.375836  -0.639891  0  2.266225  0
O  O30  1  0.65381149  0.69092845  0.13877857  1  0  -0.741274  0  1.989844  0  0  -0.676872  0  2.239393  0  0  -0.706723  0  2.230018  0  0  -0.371672  -0.655684  0  2.245391  0
O  O31  1  0.34619006  0.30907283  0.86122245  1  0  -0.741333  0  1.989804  0  0  -0.676901  0  2.239347  0  0  -0.706751  0  2.229968  0  0  -0.371704  -0.655711  0  2.245345  0
O  O32  1  0.63253508  0.70512104  0.79424803  1  0  -0.893935  0  1.816523  0  0  -0.84421  0  2.004566  0  0  -0.864758  0  1.971477  0  0  -0.631151  -0.829356  0  2.028085  0
O  O33  1  0.36746697  0.29487692  0.20575137  1  0  -0.893933  0  1.816503  0  0  -0.844222  0  2.004547  0  0  -0.864768  0  1.971454  0  0  -0.631159  -0.829367  0  2.028065  0
