# generated using pymatgen
data_UCuH2(CO)10
_symmetry_space_group_name_H-M   'P 1'
_cell_length_a   5.02391399
_cell_length_b   7.04983805
_cell_length_c   8.53830588
_cell_angle_alpha   97.99131018
_cell_angle_beta   107.04018230
_cell_angle_gamma   91.25621231
_symmetry_Int_Tables_number   1
_chemical_formula_structural   UCuH2(CO)10
_chemical_formula_sum   'U1 Cu1 H2 C10 O10'
_cell_volume   285.69650203
_cell_formula_units_Z   1
loop_
 _symmetry_equiv_pos_site_id
 _symmetry_equiv_pos_as_xyz
  1  'x, y, z'
loop_
 _atom_site_type_symbol
 _atom_site_label
 _atom_site_symmetry_multiplicity
 _atom_site_fract_x
 _atom_site_fract_y
 _atom_site_fract_z
 _atom_site_occupancy
 _atom_site_hle17_bader_spin_density
 _atom_site_hle17_ddec_charge
 _atom_site_hle17_ddec_spin_density
 _atom_site_hle17_ddec_sum_bond_order
 _atom_site_hle17_magmom
 _atom_site_hse06_10hf_bader_spin_density
 _atom_site_hse06_10hf_ddec_charge
 _atom_site_hse06_10hf_ddec_spin_density
 _atom_site_hse06_10hf_ddec_sum_bond_order
 _atom_site_hse06_10hf_magmom
 _atom_site_hse06_bader_spin_density
 _atom_site_hse06_ddec_charge
 _atom_site_hse06_ddec_spin_density
 _atom_site_hse06_ddec_sum_bond_order
 _atom_site_hse06_magmom
 _atom_site_pbe_bader_spin_density
 _atom_site_pbe_cm5_charge
 _atom_site_pbe_ddec_charge
 _atom_site_pbe_ddec_spin_density
 _atom_site_pbe_ddec_sum_bond_order
 _atom_site_pbe_magmom
U  U0  1  0.49998619  0.50000718  0.50000064  1  0  2.469203  0  4.022644  0  0  2.541432  0  4.666573  0  0  2.650429  0  4.632157  0  0  2.164504  2.464225  0  4.691324  0
Cu  Cu1  1  0.00000542  0.99999426  0.50000056  1  0  1.058137  0  1.557682  0  0  1.037183  0  1.936872  0  0  1.081435  0  1.877248  0  0  0.74558  1.007774  0  1.980077  0
H  H2  1  0.73664187  0.69424268  0.98586210  1  0  0.140306  0  0.922567  0  0  0.14999  0  0.978002  0  0  0.154637  0  0.974556  0  0  0.125981  0.146523  0  0.980762  0
H  H3  1  0.26336870  0.30575864  0.01414071  1  0  0.140307  0  0.92265  0  0  0.150002  0  0.978056  0  0  0.154648  0  0.974612  0  0  0.125978  0.146535  0  0.980814  0
C  C4  1  0.63206765  0.82748995  0.99235144  1  0  -0.042274  0  3.62205  0  0  -0.080132  0  3.878189  0  0  -0.07899  0  3.8944  0  0  -0.057209  -0.080857  0  3.86755  0
C  C5  1  0.36793876  0.17251137  0.00765066  1  0  -0.042458  0  3.622205  0  0  -0.080294  0  3.878303  0  0  -0.079153  0  3.894513  0  0  -0.057231  -0.081007  0  3.867658  0
C  C6  1  0.50576520  0.87728585  0.11619029  1  0  -0.03378  0  3.68315  0  0  -0.027787  0  3.925234  0  0  -0.031037  0  3.942594  0  0  0.006552  -0.025565  0  3.913535  0
C  C7  1  0.49423898  0.12271404  0.88381128  1  0  -0.033499  0  3.682937  0  0  -0.02756  0  3.925003  0  0  -0.030805  0  3.942361  0  0  0.006584  -0.025346  0  3.913304  0
C  C8  1  0.62927730  0.95011729  0.87654163  1  0  -0.056699  0  3.685162  0  0  -0.050134  0  3.933359  0  0  -0.05672  0  3.95396  0  0  0.005084  -0.045915  0  3.919695  0
C  C9  1  0.37073102  0.04988257  0.12345829  1  0  -0.05652  0  3.685251  0  0  -0.049952  0  3.933427  0  0  -0.056536  0  3.954028  0  0  0.005146  -0.045745  0  3.919769  0
C  C10  1  0.53069953  0.74967530  0.24445516  1  0  0.683346  0  3.841092  0  0  0.645456  0  4.137078  0  0  0.683814  0  4.125925  0  0  0.234027  0.619125  0  4.143408  0
C  C11  1  0.46929619  0.25032318  0.75554482  1  0  0.683186  0  3.84115  0  0  0.645403  0  4.136973  0  0  0.683756  0  4.125818  0  0  0.233981  0.619062  0  4.143316  0
C  C12  1  0.77913991  0.89797175  0.75051469  1  0  0.675074  0  3.829669  0  0  0.633245  0  4.130931  0  0  0.672191  0  4.120772  0  0  0.240458  0.606213  0  4.1375  0
C  C13  1  0.22086159  0.10202238  0.24948346  1  0  0.67513  0  3.829518  0  0  0.633244  0  4.130886  0  0  0.67219  0  4.120726  0  0  0.240452  0.606213  0  4.137455  0
O  O14  1  0.81007298  0.72198757  0.70609772  1  0  -0.622496  0  2.083896  0  0  -0.606691  0  2.348579  0  0  -0.641756  0  2.343131  0  0  -0.361179  -0.581001  0  2.351062  0
O  O15  1  0.18991854  0.27801090  0.29389921  1  0  -0.622464  0  2.083671  0  0  -0.606633  0  2.348361  0  0  -0.641698  0  2.34291  0  0  -0.36115  -0.580948  0  2.350861  0
O  O16  1  0.68080465  0.80497309  0.39617933  1  0  -0.663402  0  2.176309  0  0  -0.64105  0  2.474161  0  0  -0.675874  0  2.462826  0  0  -0.322751  -0.616361  0  2.480831  0
O  O17  1  0.31919492  0.19502250  0.60381982  1  0  -0.663366  0  2.176425  0  0  -0.64104  0  2.474208  0  0  -0.675861  0  2.462872  0  0  -0.322706  -0.616346  0  2.480879  0
O  O18  1  0.87466868  0.03698672  0.69731770  1  0  -0.562383  0  2.103881  0  0  -0.524314  0  2.377177  0  0  -0.554633  0  2.364608  0  0  -0.278064  -0.503633  0  2.385811  0
O  O19  1  0.12534132  0.96300885  0.30268438  1  0  -0.562518  0  2.103997  0  0  -0.524408  0  2.377297  0  0  -0.554723  0  2.36472  0  0  -0.278109  -0.503728  0  2.385935  0
O  O20  1  0.76643086  0.34137440  0.47478751  1  0  -0.713231  0  1.653792  0  0  -0.737443  0  1.982642  0  0  -0.755933  0  1.966233  0  0  -0.747925  -0.727105  0  1.994952  0
O  O21  1  0.23356736  0.65862837  0.52521220  1  0  -0.713192  0  1.654179  0  0  -0.737376  0  1.983051  0  0  -0.755856  0  1.966632  0  0  -0.748075  -0.727033  0  1.995344  0
O  O22  1  0.40999539  0.58432749  0.20905099  1  0  -0.568221  0  1.956773  0  0  -0.550577  0  2.193593  0  0  -0.581772  0  2.188426  0  0  -0.299982  -0.52755  0  2.195674  0
O  O23  1  0.58998832  0.41567536  0.79095095  1  0  -0.568185  0  1.956767  0  0  -0.55056  0  2.193514  0  0  -0.581754  0  2.188348  0  0  -0.299945  -0.527532  0  2.195601  0
