# generated using pymatgen
data_GaH4C4N2Cl3
_symmetry_space_group_name_H-M   'P 1'
_cell_length_a   6.35341301
_cell_length_b   6.37569684
_cell_length_c   11.70834914
_cell_angle_alpha   100.14759315
_cell_angle_beta   89.99489194
_cell_angle_gamma   119.88708572
_symmetry_Int_Tables_number   1
_chemical_formula_structural   GaH4C4N2Cl3
_chemical_formula_sum   'Ga2 H8 C8 N4 Cl6'
_cell_volume   402.62568480
_cell_formula_units_Z   2
loop_
 _symmetry_equiv_pos_site_id
 _symmetry_equiv_pos_as_xyz
  1  'x, y, z'
loop_
 _atom_site_type_symbol
 _atom_site_label
 _atom_site_symmetry_multiplicity
 _atom_site_fract_x
 _atom_site_fract_y
 _atom_site_fract_z
 _atom_site_occupancy
 _atom_site_hle17_bader_spin_density
 _atom_site_hle17_ddec_charge
 _atom_site_hle17_ddec_spin_density
 _atom_site_hle17_ddec_sum_bond_order
 _atom_site_hle17_magmom
 _atom_site_hse06_10hf_bader_spin_density
 _atom_site_hse06_10hf_ddec_charge
 _atom_site_hse06_10hf_ddec_spin_density
 _atom_site_hse06_10hf_ddec_sum_bond_order
 _atom_site_hse06_10hf_magmom
 _atom_site_hse06_bader_spin_density
 _atom_site_hse06_ddec_charge
 _atom_site_hse06_ddec_spin_density
 _atom_site_hse06_ddec_sum_bond_order
 _atom_site_hse06_magmom
 _atom_site_pbe_bader_spin_density
 _atom_site_pbe_cm5_charge
 _atom_site_pbe_ddec_charge
 _atom_site_pbe_ddec_spin_density
 _atom_site_pbe_ddec_sum_bond_order
 _atom_site_pbe_magmom
Ga  Ga0  1  0.28280728  0.00001940  0.74998316  1  0  1.086098  0  2.684463  0  0  0.942744  0  3.118616  0  0  0.988306  0  3.090894  0  0  0.354481  0.911764  0  3.136837  0
Ga  Ga1  1  0.71719522  0.99996770  0.25001199  1  0  1.08622  0  2.684648  0  0  0.942865  0  3.118834  0  0  0.988421  0  3.091108  0  0  0.354488  0.911881  0  3.137078  0
H  H2  1  0.66191360  0.22211401  0.97016554  1  0  0.092149  0  0.965713  0  0  0.095241  0  1.038312  0  0  0.098007  0  1.036382  0  0  0.113047  0.0932  0  1.03985  0
H  H3  1  0.43979031  0.77780733  0.52980967  1  0  0.092048  0  0.965711  0  0  0.095106  0  1.038374  0  0  0.097871  0  1.036447  0  0  0.112862  0.093063  0  1.03993  0
H  H4  1  0.33808914  0.77787670  0.02984020  1  0  0.092106  0  0.965558  0  0  0.095186  0  1.038187  0  0  0.097952  0  1.036254  0  0  0.112975  0.093145  0  1.03972  0
H  H5  1  0.56021079  0.22222417  0.47018126  1  0  0.09208  0  0.965776  0  0  0.095133  0  1.038463  0  0  0.097894  0  1.036534  0  0  0.112921  0.093092  0  1.040011  0
H  H6  1  0.20090563  0.44190758  0.84936877  1  0  0.095815  0  0.963734  0  0  0.097498  0  1.036947  0  0  0.100528  0  1.034566  0  0  0.114192  0.095279  0  1.038764  0
H  H7  1  0.75901667  0.55826650  0.65060208  1  0  0.095735  0  0.964169  0  0  0.097459  0  1.037209  0  0  0.100484  0  1.034828  0  0  0.114259  0.095251  0  1.039026  0
H  H8  1  0.79910223  0.55807766  0.15062790  1  0  0.095662  0  0.964085  0  0  0.09736  0  1.037178  0  0  0.100389  0  1.034794  0  0  0.114146  0.095144  0  1.038993  0
H  H9  1  0.24095789  0.44174654  0.34938535  1  0  0.095701  0  0.964169  0  0  0.097431  0  1.037196  0  0  0.100459  0  1.034814  0  0  0.114218  0.095219  0  1.039016  0
C  C10  1  0.58849392  0.34575199  0.98396054  1  0  0.099914  0  3.644087  0  0  0.068019  0  3.896069  0  0  0.07119  0  3.912824  0  0  0.065182  0.065727  0  3.88507  0
C  C11  1  0.24271203  0.65417716  0.51602969  1  0  0.100333  0  3.64389  0  0  0.068485  0  3.895858  0  0  0.07166  0  3.91261  0  0  0.065632  0.066198  0  3.884862  0
C  C12  1  0.41153803  0.65424050  0.01605478  1  0  0.100184  0  3.643544  0  0  0.068364  0  3.895532  0  0  0.071533  0  3.912292  0  0  0.065467  0.066082  0  3.884522  0
C  C13  1  0.75725776  0.34583580  0.48396798  1  0  0.10006  0  3.644259  0  0  0.06818  0  3.896251  0  0  0.071354  0  3.912999  0  0  0.065283  0.065891  0  3.885268  0
C  C14  1  0.33473473  0.46799755  0.91671553  1  0  0.102356  0  3.637285  0  0  0.070233  0  3.890116  0  0  0.0737  0  3.906538  0  0  0.066938  0.067723  0  3.879364  0
C  C15  1  0.86670012  0.53211324  0.58327574  1  0  0.102638  0  3.638487  0  0  0.070584  0  3.891287  0  0  0.074055  0  3.907709  0  0  0.067058  0.068097  0  3.880478  0
C  C16  1  0.66529631  0.53199310  0.08329875  1  0  0.102681  0  3.637832  0  0  0.070697  0  3.890534  0  0  0.074171  0  3.906945  0  0  0.06719  0.068188  0  3.879776  0
C  C17  1  0.13325691  0.46788679  0.41671981  1  0  0.1024  0  3.638646  0  0  0.070359  0  3.891356  0  0  0.07383  0  3.907773  0  0  0.06693  0.067856  0  3.8806  0
N  N18  1  0.42402796  0.31481564  0.90118149  1  0  -0.270304  0  3.313785  0  0  -0.191694  0  3.550266  0  0  -0.207198  0  3.572637  0  0  -0.267836  -0.181155  0  3.535159  0
N  N19  1  0.10915986  0.68518834  0.59879422  1  0  -0.270602  0  3.314486  0  0  -0.192063  0  3.550989  0  0  -0.207566  0  3.573359  0  0  -0.268154  -0.181517  0  3.535891  0
N  N20  1  0.57602429  0.68516393  0.09883086  1  0  -0.270544  0  3.31398  0  0  -0.192003  0  3.550426  0  0  -0.207503  0  3.57279  0  0  -0.268139  -0.181471  0  3.535333  0
N  N21  1  0.89081365  0.31483205  0.40119904  1  0  -0.270442  0  3.314557  0  0  -0.191869  0  3.551008  0  0  -0.207368  0  3.573374  0  0  -0.267919  -0.181333  0  3.535918  0
Cl  Cl22  1  0.23389856  0.22320673  0.63916295  1  0  -0.43692  0  1.047398  0  0  -0.400235  0  1.303699  0  0  -0.413779  0  1.291483  0  0  -0.17969  -0.390589  0  1.312014  0
Cl  Cl23  1  0.01077835  0.77686997  0.86082088  1  0  -0.43685  0  1.047596  0  0  -0.400245  0  1.30399  0  0  -0.413799  0  1.291797  0  0  -0.179651  -0.390598  0  1.312301  0
Cl  Cl24  1  0.76609932  0.77682463  0.36084676  1  0  -0.436929  0  1.047497  0  0  -0.400264  0  1.303814  0  0  -0.413827  0  1.291635  0  0  -0.179672  -0.390611  0  1.312135  0
Cl  Cl25  1  0.98921330  0.22309858  0.13918186  1  0  -0.436803  0  1.047671  0  0  -0.400232  0  1.304128  0  0  -0.413779  0  1.291928  0  0  -0.179611  -0.390577  0  1.312442  0
Cl  Cl26  1  0.62922944  0.00004239  0.74996419  1  0  -0.452384  0  1.047331  0  0  -0.42115  0  1.309363  0  0  -0.433476  0  1.294991  0  0  -0.178301  -0.41246  0  1.319224  0
Cl  Cl27  1  0.37078284  0.99994853  0.25001340  1  0  -0.452401  0  1.047344  0  0  -0.421188  0  1.309436  0  0  -0.433509  0  1.295063  0  0  -0.178296  -0.41249  0  1.319295  0
