# generated using pymatgen
data_CuH8C7NClO
_symmetry_space_group_name_H-M   'P 1'
_cell_length_a   6.16287598
_cell_length_b   7.88159453
_cell_length_c   8.45628448
_cell_angle_alpha   88.22653705
_cell_angle_beta   78.80224392
_cell_angle_gamma   68.70776388
_symmetry_Int_Tables_number   1
_chemical_formula_structural   CuH8C7NClO
_chemical_formula_sum   'Cu2 H16 C14 N2 Cl2 O2'
_cell_volume   375.07420592
_cell_formula_units_Z   2
loop_
 _symmetry_equiv_pos_site_id
 _symmetry_equiv_pos_as_xyz
  1  'x, y, z'
loop_
 _atom_site_type_symbol
 _atom_site_label
 _atom_site_symmetry_multiplicity
 _atom_site_fract_x
 _atom_site_fract_y
 _atom_site_fract_z
 _atom_site_occupancy
 _atom_site_hle17_ddec_charge
 _atom_site_hle17_ddec_spin_density
 _atom_site_hle17_ddec_sum_bond_order
 _atom_site_hle17_magmom
 _atom_site_hse06_10hf_ddec_charge
 _atom_site_hse06_10hf_ddec_spin_density
 _atom_site_hse06_10hf_ddec_sum_bond_order
 _atom_site_hse06_10hf_magmom
 _atom_site_hse06_ddec_charge
 _atom_site_hse06_ddec_spin_density
 _atom_site_hse06_ddec_sum_bond_order
 _atom_site_hse06_magmom
 _atom_site_pbe_cm5_charge
 _atom_site_pbe_ddec_charge
 _atom_site_pbe_ddec_spin_density
 _atom_site_pbe_ddec_sum_bond_order
 _atom_site_pbe_magmom
Cu  Cu0  1  0.67512102  0.10641359  0.50011024  1  0.780836  0.267589  1.902277  0.2  0.780083  0.655098  2.302844  0.524  0.891248  0.805832  2.214617  0.661  0.606925  0.703293  0.241784  2.365016  0.192
Cu  Cu1  1  0.32488211  0.89357623  0.49989740  1  0.780883  -0.267593  1.902667  -0.2  0.780073  -0.655096  2.303232  -0.524  0.89118  -0.80583  2.214975  -0.661  0.606728  0.702837  -0.241733  2.365687  -0.193
H  H2  1  0.78200906  0.42617357  0.54535606  1  0.078858  0.000255  0.976616  0.0  0.088053  0.000595  1.039896  0.001  0.089992  0.0005  1.038923  0.001  0.104019  0.086557  0.000271  1.040625  0.0
H  H3  1  0.21798872  0.57383132  0.45464255  1  0.078827  -0.000254  0.976676  0.0  0.088039  -0.000594  1.039913  -0.001  0.089976  -0.000499  1.038949  -0.001  0.103974  0.086538  -0.000271  1.040642  0.0
H  H4  1  0.80104301  0.01926603  0.13689197  1  0.108799  -0.000436  0.936891  0.0  0.127431  -0.000892  0.994911  -0.001  0.129073  -0.000806  0.994069  0.0  0.09464  0.126072  -0.000397  0.99572  0.0
H  H5  1  0.19895806  0.98073880  0.86311211  1  0.108757  0.000435  0.93686  0.0  0.127398  0.000892  0.994843  0.001  0.129046  0.000806  0.994003  0.0  0.09461  0.126033  0.000397  0.995679  0.0
H  H6  1  0.64513323  0.17298936  0.00357146  1  0.093959  -0.000313  0.969786  -0.001  0.109255  -0.000522  1.03583  -0.001  0.11083  -0.000468  1.035046  -0.001  0.088431  0.108026  -0.000215  1.036356  0.0
H  H7  1  0.35487168  0.82700731  0.99643108  1  0.093955  0.000313  0.969867  0.001  0.109256  0.000522  1.035871  0.001  0.110836  0.000469  1.035093  0.001  0.088443  0.108028  0.000215  1.0364  0.0
H  H8  1  0.72445215  0.43715087  0.97507603  1  0.107939  0.000226  0.961542  0.0  0.11691  0.000582  1.025195  0.0  0.120112  0.000493  1.024717  0.0  0.102176  0.114521  0.00027  1.025764  0.0
H  H9  1  0.27555978  0.56284854  0.02492075  1  0.107879  -0.000226  0.961523  0.0  0.116904  -0.000582  1.025115  0.0  0.120103  -0.000493  1.024642  0.0  0.102173  0.114515  -0.00027  1.025677  0.0
H  H10  1  0.78981997  0.69832310  0.09526021  1  0.095154  5.9e-05  0.930971  0.0  0.112078  -0.000121  0.980693  0.0  0.114513  -0.000138  0.979372  0.0  0.109613  0.110098  -4.6e-05  0.982007  0.0
H  H11  1  0.21018916  0.30168590  0.90473085  1  0.095171  -5.9e-05  0.930993  0.0  0.112059  0.000121  0.980746  0.0  0.114494  0.000138  0.979427  0.0  0.109636  0.110081  4.5e-05  0.982072  0.0
H  H12  1  0.27833964  0.27223671  0.23779868  1  0.032616  -0.00014  0.923839  0.0  0.04936  -0.000253  0.986  0.0  0.047134  -0.0002  0.987754  0.0  0.081978  0.051233  -0.000121  0.98463  0.0
H  H13  1  0.72166493  0.72775729  0.76219803  1  0.032646  0.000139  0.923828  0.0  0.049387  0.000252  0.985998  0.0  0.047158  0.0002  0.987754  0.0  0.08199  0.05126  0.000121  0.984634  0.0
H  H14  1  0.37181719  0.04525861  0.15856810  1  0.053945  0.001502  0.959066  0.002  0.065688  0.002563  1.025942  0.003  0.060565  0.002172  1.02907  0.002  0.088844  0.070576  0.00109  1.022939  0.001
H  H15  1  0.62817225  0.95473962  0.84141996  1  0.053997  -0.001502  0.959135  -0.002  0.065763  -0.002562  1.025978  -0.003  0.060641  -0.002172  1.029106  -0.002  0.088871  0.070652  -0.001092  1.02295  -0.001
H  H16  1  0.82273650  0.69145072  0.38701256  1  0.114276  0.000193  0.985762  0.0  0.115974  0.000362  1.061171  0.001  0.119726  0.000321  1.059513  0.0  0.09876  0.113094  0.000167  1.062844  0.0
H  H17  1  0.17725861  0.30855284  0.61298408  1  0.114172  -0.000193  0.985799  0.0  0.115874  -0.000362  1.061181  -0.001  0.119625  -0.000321  1.059528  0.0  0.098728  0.112989  -0.000167  1.062852  0.0
C  C18  1  0.71042393  0.30000700  0.19785026  1  0.284271  -0.001746  3.681117  -0.002  0.290937  2.7e-05  3.919475  -0.001  0.305171  -0.000812  3.937493  -0.002  0.123169  0.280797  0.000269  3.908165  0.0
C  C19  1  0.28956776  0.69998976  0.80214816  1  0.284304  0.00174  3.681133  0.002  0.290995  -2.7e-05  3.919416  0.001  0.305235  0.00081  3.937436  0.002  0.123174  0.280841  -0.000269  3.908065  0.0
C  C20  1  0.76902487  0.43659539  0.41864052  1  0.130851  -0.002483  3.706779  -0.003  0.101223  -0.000951  3.961351  -0.002  0.109739  -0.001628  3.983864  -0.003  0.03934  0.095784  -0.000187  3.946756  0.0
C  C21  1  0.23096897  0.56341092  0.58135387  1  0.130844  0.002476  3.706313  0.003  0.101226  0.000952  3.960859  0.002  0.109741  0.001631  3.983367  0.003  0.039394  0.095765  0.000187  3.946236  0.0
C  C22  1  0.65517439  0.15023792  0.13123062  1  -0.247427  1.7e-05  3.716558  0.0  -0.299324  -0.000298  3.969127  0.0  -0.305682  -0.000515  3.980249  0.0  -0.172228  -0.293898  -6e-05  3.960792  0.0
C  C23  1  0.34483255  0.84976146  0.86877158  1  -0.247457  -1.7e-05  3.716511  0.0  -0.299318  0.000298  3.969008  0.0  -0.305704  0.000513  3.980157  0.0  -0.172225  -0.293882  5.7e-05  3.960688  0.0
C  C24  1  0.73634294  0.44187470  0.10168012  1  -0.180927  0.003664  3.712307  0.004  -0.195748  0.003875  3.954698  0.005  -0.205214  0.003706  3.973556  0.004  -0.088587  -0.189652  0.001563  3.942732  0.002
C  C25  1  0.26365336  0.55811936  0.89831418  1  -0.180848  -0.003657  3.712678  -0.004  -0.195736  -0.003875  3.955017  -0.005  -0.205198  -0.003704  3.973879  -0.004  -0.088537  -0.189641  -0.001565  3.943057  -0.002
C  C26  1  0.77431152  0.58537812  0.16824636  1  0.016321  -0.003107  3.735487  -0.003  -0.003559  -0.002446  3.987786  -0.002  0.003991  -0.002636  4.002552  -0.003  -0.065785  -0.008921  -0.00093  3.978764  -0.001
C  C27  1  0.22569494  0.41462952  0.83174510  1  0.016338  0.003099  3.735996  0.003  -0.003534  0.002445  3.988279  0.002  0.00401  0.002634  4.003057  0.003  -0.065896  -0.008937  0.00093  3.97932  0.001
C  C28  1  0.42361823  0.13684215  0.22597539  1  0.147077  -0.000558  3.691098  -0.001  0.102392  -0.000203  3.967283  -0.001  0.118431  -0.000481  3.982557  -0.001  -0.093717  0.08946  -1.5e-05  3.955751  0.0
C  C29  1  0.57639180  0.86314358  0.77402902  1  0.147059  0.000557  3.691117  0.001  0.102336  0.000202  3.967294  0.001  0.118383  0.000481  3.982575  0.001  -0.093736  0.089407  2.2e-05  3.955744  0.0
C  C30  1  0.79195555  0.58251656  0.33012695  1  -0.143466  0.003017  3.754575  0.003  -0.164626  0.002825  4.025199  0.003  -0.174256  0.002906  4.043707  0.003  -0.094685  -0.158898  0.001098  4.014087  0.001
C  C31  1  0.20803940  0.41748008  0.66988285  1  -0.143317  -0.003008  3.754357  -0.003  -0.164473  -0.002825  4.02498  -0.003  -0.174109  -0.002905  4.043503  -0.003  -0.094641  -0.158775  -0.001098  4.013905  -0.001
N  N32  1  0.72676485  0.29921185  0.35551171  1  -0.350898  0.026513  3.314882  0.035  -0.298679  0.043149  3.594043  0.059  -0.334768  0.041219  3.61639  0.058  -0.347941  -0.275747  0.017631  3.581166  0.023
N  N33  1  0.27323378  0.70080527  0.64448892  1  -0.350968  -0.026506  3.31499  -0.035  -0.298742  -0.043151  3.594141  -0.059  -0.334807  -0.041224  3.616429  -0.058  -0.348018  -0.275744  -0.017641  3.581227  -0.023
Cl  Cl34  1  0.13299693  0.86025288  0.30985958  1  -0.554034  -0.032774  1.065162  -0.039  -0.541776  -0.050761  1.370335  -0.061  -0.57258  -0.046623  1.339351  -0.057  -0.281205  -0.520982  -0.021317  1.393098  -0.025
Cl  Cl35  1  0.86700152  0.13975730  0.69015540  1  -0.554026  0.032775  1.065019  0.039  -0.541769  0.050757  1.370186  0.061  -0.572565  0.046619  1.339196  0.057  -0.281116  -0.520953  0.021305  1.392924  0.025
O  O36  1  0.45386722  0.06587595  0.37921092  1  -0.568173  0.006008  2.18103  0.008  -0.555677  0.009621  2.530583  0.015  -0.628008  0.008957  2.536797  0.015  -0.39365  -0.501183  0.00377  2.524316  0.006
O  O37  1  0.54612609  0.93412072  0.62079557  1  -0.568191  -0.006006  2.180942  -0.008  -0.555729  -0.009617  2.530587  -0.015  -0.628064  -0.008951  2.536801  -0.015  -0.393651  -0.501244  -0.003799  2.524317  -0.006
