# generated using pymatgen
data_CdH3C2O3
_symmetry_space_group_name_H-M   'P 1'
_cell_length_a   5.71426444
_cell_length_b   6.18021091
_cell_length_c   10.20809761
_cell_angle_alpha   97.21839492
_cell_angle_beta   89.99967333
_cell_angle_gamma   90.00003294
_symmetry_Int_Tables_number   1
_chemical_formula_structural   CdH3C2O3
_chemical_formula_sum   'Cd4 H12 C8 O12'
_cell_volume   357.64544044
_cell_formula_units_Z   4
loop_
 _symmetry_equiv_pos_site_id
 _symmetry_equiv_pos_as_xyz
  1  'x, y, z'
loop_
 _atom_site_type_symbol
 _atom_site_label
 _atom_site_symmetry_multiplicity
 _atom_site_fract_x
 _atom_site_fract_y
 _atom_site_fract_z
 _atom_site_occupancy
 _atom_site_hle17_bader_spin_density
 _atom_site_hle17_ddec_charge
 _atom_site_hle17_ddec_spin_density
 _atom_site_hle17_ddec_sum_bond_order
 _atom_site_hle17_magmom
 _atom_site_hse06_10hf_bader_spin_density
 _atom_site_hse06_10hf_ddec_charge
 _atom_site_hse06_10hf_ddec_spin_density
 _atom_site_hse06_10hf_ddec_sum_bond_order
 _atom_site_hse06_10hf_magmom
 _atom_site_hse06_bader_spin_density
 _atom_site_hse06_ddec_charge
 _atom_site_hse06_ddec_spin_density
 _atom_site_hse06_ddec_sum_bond_order
 _atom_site_hse06_magmom
 _atom_site_pbe_bader_spin_density
 _atom_site_pbe_cm5_charge
 _atom_site_pbe_ddec_charge
 _atom_site_pbe_ddec_spin_density
 _atom_site_pbe_ddec_sum_bond_order
 _atom_site_pbe_magmom
Cd  Cd0  1  0.97863623  0.14017589  0.86903974  1  0  1.264634  0  1.595425  0  0  1.092915  0  2.028696  0  0  1.152959  0  1.970332  0  0  0.723097  1.049746  0  2.068225  0
Cd  Cd1  1  0.47863336  0.35983137  0.13096548  1  0  1.264624  0  1.595429  0  0  1.092901  0  2.028699  0  0  1.15294  0  1.970336  0  0  0.723101  1.049731  0  2.068235  0
Cd  Cd2  1  0.02136396  0.85983005  0.13096387  1  0  1.264644  0  1.595432  0  0  1.092966  0  2.028638  0  0  1.153002  0  1.970282  0  0  0.723097  1.049784  0  2.068199  0
Cd  Cd3  1  0.52136508  0.64017457  0.86903715  1  0  1.264617  0  1.595441  0  0  1.092881  0  2.028744  0  0  1.152918  0  1.97038  0  0  0.72309  1.049712  0  2.068281  0
H  H4  1  0.01357086  0.30072020  0.12630255  1  0  0.389238  0  0.936583  0  0  0.357918  0  1.004193  0  0  0.368197  0  0.989706  0  0  0.262785  0.350698  0  1.014251  0
H  H5  1  0.51358251  0.19929063  0.87370447  1  0  0.389272  0  0.936558  0  0  0.357892  0  1.004255  0  0  0.368177  0  0.989771  0  0  0.262751  0.350661  0  1.014307  0
H  H6  1  0.98642407  0.69929227  0.87370152  1  0  0.389287  0  0.936544  0  0  0.357934  0  1.004204  0  0  0.368213  0  0.989717  0  0  0.262766  0.350707  0  1.014251  0
H  H7  1  0.48641593  0.80071528  0.12629620  1  0  0.389274  0  0.936564  0  0  0.357967  0  1.004143  0  0  0.368244  0  0.989658  0  0  0.262797  0.350752  0  1.01419  0
H  H8  1  0.26029193  0.53728906  0.53411234  1  0  0.120715  0  0.935386  0  0  0.134015  0  0.998795  0  0  0.136463  0  0.997778  0  0  0.106287  0.132231  0  0.999738  0
H  H9  1  0.76030788  0.96270395  0.46588412  1  0  0.120668  0  0.935494  0  0  0.133974  0  0.998879  0  0  0.13642  0  0.997853  0  0  0.106293  0.132191  0  0.999821  0
H  H10  1  0.73969776  0.46270383  0.46588936  1  0  0.120706  0  0.935404  0  0  0.134014  0  0.998822  0  0  0.13646  0  0.997805  0  0  0.106317  0.13223  0  0.999765  0
H  H11  1  0.23971505  0.03729213  0.53411291  1  0  0.120703  0  0.935384  0  0  0.134018  0  0.998783  0  0  0.136461  0  0.997764  0  0  0.106313  0.132237  0  0.999726  0
H  H12  1  0.03105313  0.71169330  0.59546364  1  0  0.114805  0  0.924841  0  0  0.130302  0  0.985237  0  0  0.132188  0  0.984744  0  0  0.105037  0.128964  0  0.985756  0
H  H13  1  0.53105373  0.78829825  0.40453543  1  0  0.11487  0  0.924946  0  0  0.130329  0  0.985371  0  0  0.132209  0  0.984876  0  0  0.105007  0.128994  0  0.985885  0
H  H14  1  0.96894530  0.28831425  0.40453812  1  0  0.114844  0  0.924999  0  0  0.130354  0  0.98538  0  0  0.132238  0  0.984887  0  0  0.105062  0.129019  0  0.985893  0
H  H15  1  0.46895696  0.21168314  0.59545957  1  0  0.114894  0  0.924825  0  0  0.130306  0  0.985325  0  0  0.132186  0  0.98483  0  0  0.105029  0.128972  0  0.985838  0
C  C16  1  0.07348386  0.54113991  0.55998924  1  0  -0.242458  0  3.678536  0  0  -0.283253  0  3.928123  0  0  -0.288872  0  3.936795  0  0  -0.166459  -0.279737  0  3.922592  0
C  C17  1  0.57347906  0.95885339  0.44002060  1  0  -0.242567  0  3.678487  0  0  -0.283439  0  3.928128  0  0  -0.289043  0  3.93678  0  0  -0.166489  -0.279923  0  3.922596  0
C  C18  1  0.92651633  0.45885621  0.44001074  1  0  -0.242516  0  3.678762  0  0  -0.283399  0  3.928421  0  0  -0.289022  0  3.937114  0  0  -0.166509  -0.279885  0  3.922891  0
C  C19  1  0.42651413  0.04113803  0.55999373  1  0  -0.242521  0  3.678863  0  0  -0.283325  0  3.928505  0  0  -0.288971  0  3.937243  0  0  -0.166559  -0.279814  0  3.922979  0
C  C20  1  0.04413737  0.41050385  0.67389799  1  0  0.710905  0  3.803758  0  0  0.657274  0  4.104205  0  0  0.691792  0  4.098256  0  0  0.211826  0.633845  0  4.107281  0
C  C21  1  0.54411749  0.08951822  0.32609797  1  0  0.710814  0  3.803798  0  0  0.657382  0  4.103969  0  0  0.691879  0  4.09803  0  0  0.211922  0.633959  0  4.107041  0
C  C22  1  0.95586282  0.58949393  0.32610405  1  0  0.710804  0  3.803861  0  0  0.657195  0  4.104302  0  0  0.691708  0  4.09836  0  0  0.211783  0.633768  0  4.107371  0
C  C23  1  0.45587045  0.91049733  0.67389261  1  0  0.710887  0  3.804337  0  0  0.657249  0  4.104785  0  0  0.691751  0  4.098839  0  0  0.211801  0.633823  0  4.107862  0
O  O24  1  0.12175294  0.19455031  0.07773339  1  0  -1.00736  0  1.808925  0  0  -0.895169  0  2.070801  0  0  -0.936481  0  2.038192  0  0  -0.596337  -0.865427  0  2.092113  0
O  O25  1  0.62176074  0.30546039  0.92226935  1  0  -1.007317  0  1.808766  0  0  -0.895084  0  2.070731  0  0  -0.936413  0  2.038083  0  0  -0.59628  -0.865316  0  2.092112  0
O  O26  1  0.87824200  0.80546052  0.92227057  1  0  -1.007327  0  1.808775  0  0  -0.895122  0  2.070697  0  0  -0.936432  0  2.03809  0  0  -0.596273  -0.865356  0  2.092072  0
O  O27  1  0.37824470  0.69455039  0.07773069  1  0  -1.007357  0  1.808941  0  0  -0.895175  0  2.070823  0  0  -0.936486  0  2.038216  0  0  -0.596345  -0.865429  0  2.092129  0
O  O28  1  0.92105860  0.23835461  0.66017118  1  0  -0.620471  0  1.969579  0  0  -0.546266  0  2.209759  0  0  -0.577137  0  2.202161  0  0  -0.307738  -0.524468  0  2.214109  0
O  O29  1  0.42105881  0.26162659  0.33983237  1  0  -0.620338  0  1.970469  0  0  -0.54621  0  2.210594  0  0  -0.577053  0  2.202982  0  0  -0.307729  -0.524416  0  2.214948  0
O  O30  1  0.07894509  0.76163988  0.33982867  1  0  -0.620406  0  1.969563  0  0  -0.546226  0  2.209772  0  0  -0.577093  0  2.202176  0  0  -0.307718  -0.524423  0  2.214116  0
O  O31  1  0.57892912  0.73836632  0.66017129  1  0  -0.620435  0  1.970085  0  0  -0.546211  0  2.210278  0  0  -0.577058  0  2.202661  0  0  -0.307687  -0.524412  0  2.21463  0
O  O32  1  0.14623224  0.47454152  0.78553441  1  0  -0.730061  0  2.042021  0  0  -0.647732  0  2.302379  0  0  -0.67909  0  2.28758  0  0  -0.338504  -0.625864  0  2.311613  0
O  O33  1  0.64624137  0.02544785  0.21445790  1  0  -0.730103  0  2.041554  0  0  -0.647862  0  2.301826  0  0  -0.679221  0  2.287035  0  0  -0.338592  -0.625988  0  2.311066  0
O  O34  1  0.85376095  0.52545954  0.21446983  1  0  -0.729968  0  2.042034  0  0  -0.647645  0  2.302351  0  0  -0.679007  0  2.287559  0  0  -0.338456  -0.625769  0  2.311592  0
O  O35  1  0.35378157  0.97453664  0.78552459  1  0  -0.729998  0  2.042062  0  0  -0.647667  0  2.302427  0  0  -0.679023  0  2.28765  0  0  -0.338486  -0.625797  0  2.311656  0
