# generated using pymatgen
data_AlH3C8ClO5F
_symmetry_space_group_name_H-M   'P 1'
_cell_length_a   6.66496039
_cell_length_b   8.89024618
_cell_length_c   11.12966371
_cell_angle_alpha   81.91009461
_cell_angle_beta   72.75520281
_cell_angle_gamma   75.57274301
_symmetry_Int_Tables_number   1
_chemical_formula_structural   AlH3C8ClO5F
_chemical_formula_sum   'Al2 H6 C16 Cl2 O10 F2'
_cell_volume   608.36481546
_cell_formula_units_Z   2
loop_
 _symmetry_equiv_pos_site_id
 _symmetry_equiv_pos_as_xyz
  1  'x, y, z'
loop_
 _atom_site_type_symbol
 _atom_site_label
 _atom_site_symmetry_multiplicity
 _atom_site_fract_x
 _atom_site_fract_y
 _atom_site_fract_z
 _atom_site_occupancy
 _atom_site_pbe_bader_charge
 _atom_site_pbe_bader_spin_density
 _atom_site_pbe_cm5_charge
 _atom_site_pbe_ddec_charge
 _atom_site_pbe_ddec_spin_density
 _atom_site_pbe_ddec_sum_bond_order
 _atom_site_pbe_magmom
Al  Al0  1  0.51414120  0.50332194  0.49693643  1  2.505402  0  0.399437  1.642424  0  2.577175  0
Al  Al1  1  0.01262281  0.50230264  0.50166999  1  2.502672  0  0.399441  1.645291  0  2.577747  0
H  H2  1  0.77735472  0.65412998  0.37691011  1  0.617466  0  0.360551  0.442035  0  0.833527  0
H  H3  1  0.29479935  0.31314039  0.56483189  1  0.648793  0  0.348808  0.428861  0  0.861924  0
H  H4  1  0.14085558  0.31078632  0.24407544  1  0.138921  0  0.110444  0.134705  0  1.027741  0
H  H5  1  0.35232976  0.32489412  0.77619859  1  0.101396  0  0.113142  0.136295  0  1.027641  0
H  H6  1  0.81627707  0.59790216  0.87412499  1  0.072847  0  0.115019  0.123816  0  0.97497  0
H  H7  1  0.70253331  0.59673800  0.10965295  1  0.07535  0  0.111455  0.118189  0  0.983312  0
C  C8  1  0.38171168  0.49474515  0.27149461  1  1.573362  0  0.267754  0.649476  0  4.080382  0
C  C9  1  0.16301116  0.77975647  0.50641687  1  1.631  0  0.264794  0.602467  0  4.164336  0
C  C10  1  0.64504832  0.49457850  0.72615114  1  1.520099  0  0.2717  0.648102  0  4.081195  0
C  C11  1  0.86272376  0.22190897  0.49543797  1  1.678086  0  0.259603  0.594867  0  4.181552  0
C  C12  1  0.91640107  0.04846438  0.49919877  1  0.598524  0  0.098641  0.043446  0  4.002706  0
C  C13  1  0.10836074  0.95322452  0.50409629  1  0.560362  0  0.102365  0.05309  0  3.96947  0
C  C14  1  0.45051608  0.47767255  0.13270807  1  0.019786  0  -0.006279  -0.08045  0  3.925215  0
C  C15  1  0.34510664  0.40090048  0.07256692  1  -0.000202  0  0.002182  0.073697  0  3.951111  0
C  C16  1  0.62050082  0.54341858  0.06142896  1  -0.093715  0  -0.078524  -0.087114  0  3.989679  0
C  C17  1  0.18894348  0.31515338  0.14174675  1  0.097623  0  -0.092956  -0.186313  0  3.940346  0
C  C18  1  0.09839678  0.23490461  0.08192199  1  0.021078  0  0.009549  0.092381  0  4.064479  0
C  C19  1  0.57670939  0.48095854  0.86699158  1  0.011156  0  -0.004272  -0.076791  0  3.928089  0
C  C20  1  0.68385538  0.54457645  0.92941531  1  0.104717  0  -0.076849  -0.086044  0  3.985579  0
C  C21  1  0.40822066  0.40363789  0.93703365  1  -0.055645  0  0.002987  0.070437  0  3.950605  0
C  C22  1  0.30959047  0.32195070  0.87834803  1  0.074706  0  -0.091234  -0.184304  0  3.939073  0
C  C23  1  0.15927302  0.23867924  0.94799806  1  0.061799  0  0.008346  0.091673  0  4.064997  0
Cl  Cl24  1  0.91315674  0.12931911  0.17087330  1  -0.193282  0  -0.003865  -0.066098  0  1.536413  0
Cl  Cl25  1  0.04987482  0.13806347  0.87113469  1  -0.18277  0  -0.007552  -0.06836  0  1.508453  0
O  O26  1  0.52983568  0.49089966  0.32347779  1  -1.262113  0  -0.237503  -0.6013  0  2.349552  0
O  O27  1  0.00966220  0.71253304  0.52128996  1  -1.240373  0  -0.222743  -0.560675  0  2.370075  0
O  O28  1  0.84509377  0.48460985  0.67311370  1  -1.24745  0  -0.232962  -0.590541  0  2.348016  0
O  O29  1  0.66663615  0.28648733  0.50549979  1  -1.237145  0  -0.227012  -0.567148  0  2.36489  0
O  O30  1  0.49933560  0.51509552  0.66923528  1  -1.26213  0  -0.231865  -0.58111  0  2.35961  0
O  O31  1  0.01603951  0.28834740  0.48402739  1  -1.244865  0  -0.229362  -0.576627  0  2.399604  0
O  O32  1  0.18058446  0.51761591  0.32700946  1  -1.26515  0  -0.239419  -0.601954  0  2.353847  0
O  O33  1  0.36047934  0.71623935  0.49156148  1  -1.245254  0  -0.222448  -0.557064  0  2.350288  0
O  O34  1  0.76977273  0.57093409  0.44320335  1  -1.418286  0  -0.446821  -0.991982  0  2.203972  0
O  O35  1  0.26361943  0.42605887  0.55195468  1  -1.450917  0  -0.447662  -0.986049  0  2.181842  0
F  F36  1  0.75180963  0.98679998  0.49900292  1  -0.606551  0  -0.073455  -0.068726  0  1.45099  0
F  F37  1  0.27345464  0.01477924  0.50418588  1  -0.609296  0  -0.073437  -0.072603  0  1.445752  0
