# generated using pymatgen
data_CuH6C8O5
_symmetry_space_group_name_H-M   'P 1'
_cell_length_a   6.03151141
_cell_length_b   10.85864080
_cell_length_c   10.91310385
_cell_angle_alpha   55.31145780
_cell_angle_beta   76.45881269
_cell_angle_gamma   76.90412774
_symmetry_Int_Tables_number   1
_chemical_formula_structural   CuH6C8O5
_chemical_formula_sum   'Cu2 H12 C16 O10'
_cell_volume   567.45894845
_cell_formula_units_Z   2
loop_
 _symmetry_equiv_pos_site_id
 _symmetry_equiv_pos_as_xyz
  1  'x, y, z'
loop_
 _atom_site_type_symbol
 _atom_site_label
 _atom_site_symmetry_multiplicity
 _atom_site_fract_x
 _atom_site_fract_y
 _atom_site_fract_z
 _atom_site_occupancy
 _atom_site_pbe_bader_charge
 _atom_site_pbe_bader_spin_density
 _atom_site_pbe_cm5_charge
 _atom_site_pbe_ddec_charge
 _atom_site_pbe_ddec_spin_density
 _atom_site_pbe_ddec_sum_bond_order
 _atom_site_pbe_magmom
Cu  Cu0  1  0.00000462  0.99999905  0.49999962  1  1.07927  -0.545612  0.693776  0.828354  -0.716865  2.280561  -0.544
Cu  Cu1  1  0.49999711  0.99999928  0.49999930  1  1.137485  0.592236  0.708927  0.974862  0.753998  2.111576  0.591
H  H2  1  0.31691138  0.15798366  0.26559828  1  0.620697  0.000315  0.316297  0.410857  0.000826  0.884144  0.001
H  H3  1  0.68310037  0.84201955  0.73440132  1  0.620681  0.000314  0.316323  0.410943  0.000826  0.884042  0.001
H  H4  1  0.21794425  0.24923887  0.35118924  1  0.653606  0.000172  0.284023  0.386413  0.000782  0.964299  0.001
H  H5  1  0.78205000  0.75076780  0.64881214  1  0.653577  0.000172  0.284052  0.386463  0.000782  0.964253  0.001
H  H6  1  0.40364617  0.25399887  0.57354677  1  0.097974  -0.000526  0.10073  0.113452  -0.000354  1.061119  0.0
H  H7  1  0.59636434  0.74599071  0.42646177  1  0.098264  -0.000526  0.100747  0.113466  -0.000354  1.061108  0.0
H  H8  1  0.89002365  0.57500881  0.37083178  1  0.098175  2.7e-05  0.104952  0.107317  3.3e-05  1.012721  0.0
H  H9  1  0.10998575  0.42498104  0.62918598  1  0.098499  2.7e-05  0.104896  0.107254  3.3e-05  1.012691  0.0
H  H10  1  0.63927164  0.90456054  0.16959555  1  0.123074  0.000423  0.10924  0.112561  0.000319  1.017166  0.0
H  H11  1  0.36072219  0.09543630  0.83040811  1  0.123184  0.000423  0.109221  0.112523  0.000319  1.017123  0.0
H  H12  1  0.24411133  0.11684791  0.05286487  1  0.078432  -0.000509  0.109322  0.112631  -0.00037  0.99428  0.0
H  H13  1  0.75589198  0.88315435  0.94713555  1  0.078246  -0.000509  0.10934  0.112677  -0.00037  0.99436  0.0
C  C14  1  0.86860652  0.01993005  0.26101427  1  1.541931  -0.000709  0.223676  0.590895  -0.000378  4.137368  0.0
C  C15  1  0.13138308  0.98007054  0.73898444  1  1.541909  -0.000708  0.223631  0.59077  -0.000376  4.137285  0.0
C  C16  1  0.84495967  0.30036907  0.44026420  1  1.553246  -0.000114  0.223095  0.598177  -0.001218  4.132405  0.001
C  C17  1  0.15504056  0.69963849  0.55972572  1  1.552486  -0.000116  0.222995  0.598066  -0.001218  4.132622  0.001
C  C18  1  0.44502458  0.36157259  0.54210819  1  0.051226  -0.000353  -0.087474  -0.092753  -0.000308  3.951725  0.0
C  C19  1  0.55497554  0.63843230  0.45787574  1  0.051423  -0.000353  -0.087519  -0.09283  -0.000308  3.951824  0.0
C  C20  1  0.93445653  0.01229985  0.12460813  1  -0.066295  0.001409  -0.007722  -0.019891  0.000954  3.944075  0.001
C  C21  1  0.06554602  0.98769482  0.87539350  1  -0.066323  0.001411  -0.007697  -0.019811  0.000955  3.944081  0.001
C  C22  1  0.66454267  0.40398314  0.46918912  1  -0.059595  -0.007797  -0.014544  -0.03087  -0.005593  3.958724  -0.006
C  C23  1  0.33544207  0.59602286  0.53079839  1  -0.059652  -0.007796  -0.014443  -0.030696  -0.005592  3.958553  -0.006
C  C24  1  0.71865958  0.54330302  0.42698238  1  -0.080666  -0.001145  -0.081436  -0.092309  -0.000742  3.968431  -0.001
C  C25  1  0.28133174  0.45670411  0.57300264  1  -0.080335  -0.001144  -0.081395  -0.092294  -0.000742  3.96818  -0.001
C  C26  1  0.79634160  0.94675545  0.09451658  1  -0.027871  -0.000329  -0.075956  -0.088315  -0.000157  3.949606  0.0
C  C27  1  0.20365389  0.05323955  0.90548317  1  -0.027981  -0.000329  -0.075972  -0.088284  -0.000157  3.949556  0.0
C  C28  1  0.13829645  0.06559803  0.02924506  1  0.019644  6.9e-05  -0.07456  -0.080157  -5.4e-05  3.95009  0.0
C  C29  1  0.86170218  0.93440004  0.97075542  1  0.019884  6.9e-05  -0.074617  -0.080263  -5.4e-05  3.950291  0.0
O  O30  1  0.68765859  0.96175285  0.34752087  1  -1.126116  0.088164  -0.307594  -0.54011  0.056615  2.412553  0.08
O  O31  1  0.31233484  0.03824537  0.65247939  1  -1.126031  0.088169  -0.307587  -0.540089  0.056618  2.4125  0.08
O  O32  1  0.78974305  0.16934981  0.49124791  1  -1.11827  -0.099664  -0.330809  -0.58038  -0.06549  2.437455  -0.089
O  O33  1  0.21026935  0.83065080  0.50875659  1  -1.11781  -0.099666  -0.330813  -0.580392  -0.065491  2.437418  -0.089
O  O34  1  0.36039872  0.18011293  0.33134501  1  -1.187655  0.079371  -0.577635  -0.775435  0.051064  2.180302  0.069
O  O35  1  0.63959815  0.81988802  0.66865980  1  -1.187634  0.079373  -0.577686  -0.775556  0.051065  2.180164  0.069
O  O36  1  0.99935549  0.07906443  0.28563987  1  -1.117986  -0.086893  -0.314739  -0.532557  -0.057681  2.368064  -0.078
O  O37  1  0.00063455  0.92092441  0.71437025  1  -1.118058  -0.086904  -0.314662  -0.532455  -0.057689  2.368021  -0.078
O  O38  1  0.03920622  0.34519963  0.37268043  1  -1.162366  0.00478  -0.3002  -0.501123  0.003189  2.196035  0.004
O  O39  1  0.96079421  0.65480957  0.62731507  1  -1.16227  0.004776  -0.300183  -0.501112  0.003186  2.196052  0.004
