# generated using pymatgen
data_ZnH4C2(N4O)2
_symmetry_space_group_name_H-M   'P 1'
_cell_length_a   7.50913596
_cell_length_b   7.50916156
_cell_length_c   7.77814411
_cell_angle_alpha   63.17827530
_cell_angle_beta   63.17838388
_cell_angle_gamma   86.61100391
_symmetry_Int_Tables_number   1
_chemical_formula_structural   ZnH4C2(N4O)2
_chemical_formula_sum   'Zn2 H8 C4 N16 O4'
_cell_volume   343.49815662
_cell_formula_units_Z   2
loop_
 _symmetry_equiv_pos_site_id
 _symmetry_equiv_pos_as_xyz
  1  'x, y, z'
loop_
 _atom_site_type_symbol
 _atom_site_label
 _atom_site_symmetry_multiplicity
 _atom_site_fract_x
 _atom_site_fract_y
 _atom_site_fract_z
 _atom_site_occupancy
 _atom_site_hle17_bader_spin_density
 _atom_site_hle17_ddec_charge
 _atom_site_hle17_ddec_spin_density
 _atom_site_hle17_ddec_sum_bond_order
 _atom_site_hle17_magmom
 _atom_site_hse06_10hf_bader_spin_density
 _atom_site_hse06_10hf_ddec_charge
 _atom_site_hse06_10hf_ddec_spin_density
 _atom_site_hse06_10hf_ddec_sum_bond_order
 _atom_site_hse06_10hf_magmom
 _atom_site_hse06_bader_spin_density
 _atom_site_hse06_ddec_charge
 _atom_site_hse06_ddec_spin_density
 _atom_site_hse06_ddec_sum_bond_order
 _atom_site_hse06_magmom
 _atom_site_pbe_bader_spin_density
 _atom_site_pbe_cm5_charge
 _atom_site_pbe_ddec_charge
 _atom_site_pbe_ddec_spin_density
 _atom_site_pbe_ddec_sum_bond_order
 _atom_site_pbe_magmom
Zn  Zn0  1  0.29069771  0.70930364  0.74999930  1  0  1.001702  0  1.902733  0  0  0.810283  0  2.369063  0  0  0.852045  0  2.320015  0  0  0.713449  0.781186  0  2.402688  0
Zn  Zn1  1  0.70930416  0.29069770  0.24999703  1  0  1.001734  0  1.902676  0  0  0.81032  0  2.369  0  0  0.852084  0  2.31995  0  0  0.713461  0.781222  0  2.402622  0
H  H2  1  0.40281852  0.70388700  0.36248961  1  0  0.399272  0  0.913933  0  0  0.353924  0  1.00261  0  0  0.364689  0  0.986986  0  0  0.288052  0.346277  0  1.013684  0
H  H3  1  0.29611122  0.59718204  0.13750680  1  0  0.399323  0  0.913873  0  0  0.353985  0  1.002537  0  0  0.364747  0  0.986915  0  0  0.288053  0.346339  0  1.01361  0
H  H4  1  0.59718038  0.29611438  0.63750799  1  0  0.399315  0  0.913873  0  0  0.353966  0  1.00255  0  0  0.364728  0  0.986929  0  0  0.288073  0.346319  0  1.013625  0
H  H5  1  0.70388945  0.40282084  0.86249067  1  0  0.39932  0  0.913871  0  0  0.353977  0  1.00254  0  0  0.36474  0  0.986919  0  0  0.288075  0.346331  0  1.013612  0
H  H6  1  0.15679090  0.69321057  0.48386454  1  0  0.405145  0  0.906492  0  0  0.362739  0  0.989992  0  0  0.373881  0  0.973923  0  0  0.286565  0.354929  0  1.001236  0
H  H7  1  0.30678868  0.84320842  0.01613547  1  0  0.405149  0  0.906492  0  0  0.362745  0  0.989987  0  0  0.373888  0  0.973919  0  0  0.286565  0.354934  0  1.001233  0
H  H8  1  0.84320712  0.30678626  0.51613543  1  0  0.40516  0  0.906474  0  0  0.362756  0  0.989972  0  0  0.373898  0  0.973904  0  0  0.286571  0.354944  0  1.001218  0
H  H9  1  0.69321199  0.15679446  0.98386200  1  0  0.405154  0  0.906485  0  0  0.362747  0  0.989986  0  0  0.37389  0  0.973918  0  0  0.286569  0.354936  0  1.001232  0
C  C10  1  0.91610621  0.91981410  0.34210516  1  0  0.228133  0  3.810878  0  0  0.205431  0  4.080919  0  0  0.213282  0  4.096743  0  0  0.224637  0.20014  0  4.07031  0
C  C11  1  0.08019086  0.08389496  0.15789495  1  0  0.228117  0  3.810816  0  0  0.20541  0  4.080885  0  0  0.213263  0  4.096706  0  0  0.224643  0.200121  0  4.070274  0
C  C12  1  0.08389565  0.08018723  0.65789633  1  0  0.228048  0  3.810928  0  0  0.205344  0  4.080968  0  0  0.213196  0  4.096792  0  0  0.224574  0.200055  0  4.070357  0
C  C13  1  0.91980892  0.91610334  0.84211133  1  0  0.228114  0  3.810875  0  0  0.205419  0  4.080914  0  0  0.213269  0  4.096739  0  0  0.224675  0.200132  0  4.070304  0
N  N14  1  0.61242847  0.77353869  0.58120564  1  0  -0.08302  0  3.173167  0  0  -0.033645  0  3.470485  0  0  -0.040515  0  3.483165  0  0  -0.094262  -0.028928  0  3.461924  0
N  N15  1  0.22646474  0.38757352  0.91879345  1  0  -0.08297  0  3.173  0  0  -0.033613  0  3.470351  0  0  -0.040478  0  3.483028  0  0  -0.094229  -0.028894  0  3.46179  0
N  N16  1  0.38757311  0.22646114  0.41879147  1  0  -0.08299  0  3.173225  0  0  -0.033616  0  3.470538  0  0  -0.040487  0  3.483216  0  0  -0.09423  -0.0289  0  3.461977  0
N  N17  1  0.77353415  0.61242785  0.08120545  1  0  -0.083004  0  3.173096  0  0  -0.033655  0  3.470455  0  0  -0.040521  0  3.483129  0  0  -0.09425  -0.028936  0  3.46189  0
N  N18  1  0.73267501  0.64387150  0.62517555  1  0  -0.067169  0  2.999782  0  0  -0.047008  0  3.27961  0  0  -0.047934  0  3.291561  0  0  -0.071981  -0.04608  0  3.271577  0
N  N19  1  0.35612897  0.26732084  0.87483044  1  0  -0.067121  0  2.999735  0  0  -0.046933  0  3.279567  0  0  -0.047862  0  3.291519  0  0  -0.071959  -0.046006  0  3.271535  0
N  N20  1  0.26732508  0.35612834  0.37482478  1  0  -0.067158  0  2.999809  0  0  -0.046994  0  3.279649  0  0  -0.047921  0  3.291599  0  0  -0.071975  -0.046066  0  3.271615  0
N  N21  1  0.64387141  0.73268052  0.12516653  1  0  -0.067078  0  2.999801  0  0  -0.04689  0  3.279631  0  0  -0.04782  0  3.29158  0  0  -0.071941  -0.045962  0  3.271595  0
N  N22  1  0.72322407  0.94911709  0.40396950  1  0  -0.275267  0  3.06382  0  0  -0.232957  0  3.340979  0  0  -0.24552  0  3.35546  0  0  -0.206449  -0.224395  0  3.331248  0
N  N23  1  0.05087587  0.27677994  0.09602909  1  0  -0.275295  0  3.063586  0  0  -0.233015  0  3.340811  0  0  -0.245586  0  3.355298  0  0  -0.206481  -0.224453  0  3.331079  0
N  N24  1  0.27677870  0.05088119  0.59603034  1  0  -0.27525  0  3.063806  0  0  -0.232925  0  3.340945  0  0  -0.245494  0  3.355435  0  0  -0.206431  -0.224363  0  3.331214  0
N  N25  1  0.94912242  0.72321839  0.90397395  1  0  -0.275284  0  3.063635  0  0  -0.232994  0  3.340834  0  0  -0.245566  0  3.355327  0  0  -0.206487  -0.224433  0  3.331103  0
N  N26  1  0.92540285  0.73248540  0.47647305  1  0  -0.256189  0  2.990421  0  0  -0.222106  0  3.258295  0  0  -0.232044  0  3.269355  0  0  -0.192561  -0.21543  0  3.250952  0
N  N27  1  0.26750933  0.07459394  0.02352983  1  0  -0.256183  0  2.990505  0  0  -0.222107  0  3.258384  0  0  -0.232045  0  3.269445  0  0  -0.192555  -0.215432  0  3.25104  0
N  N28  1  0.07459545  0.26751294  0.52352999  1  0  -0.256174  0  2.990394  0  0  -0.222107  0  3.258278  0  0  -0.232047  0  3.269339  0  0  -0.19257  -0.215429  0  3.250928  0
N  N29  1  0.73249343  0.92540435  0.97647130  1  0  -0.256167  0  2.9906  0  0  -0.222095  0  3.258473  0  0  -0.232032  0  3.269535  0  0  -0.192553  -0.215422  0  3.25113  0
O  O30  1  0.28678537  0.71860916  0.48185868  1  0  -0.851811  0  2.049924  0  0  -0.791564  0  2.294304  0  0  -0.811899  0  2.258738  0  0  -0.590762  -0.777152  0  2.318933  0
O  O31  1  0.28138534  0.71321772  0.01814319  1  0  -0.851843  0  2.049919  0  0  -0.791603  0  2.294284  0  0  -0.811937  0  2.25872  0  0  -0.590735  -0.777189  0  2.318913  0
O  O32  1  0.71321442  0.28138917  0.51814114  1  0  -0.851864  0  2.049877  0  0  -0.791613  0  2.294247  0  0  -0.811949  0  2.258685  0  0  -0.590778  -0.7772  0  2.318876  0
O  O33  1  0.71861384  0.28678517  0.98185492  1  0  -0.851849  0  2.049873  0  0  -0.791606  0  2.294248  0  0  -0.811943  0  2.258682  0  0  -0.590772  -0.777194  0  2.318874  0
