# generated using pymatgen
data_CsHC8(N2O)2
_symmetry_space_group_name_H-M   'P 1'
_cell_length_a   5.86950043
_cell_length_b   9.27750189
_cell_length_c   9.75157728
_cell_angle_alpha   112.73342236
_cell_angle_beta   90.91956217
_cell_angle_gamma   100.24221165
_symmetry_Int_Tables_number   1
_chemical_formula_structural   CsHC8(N2O)2
_chemical_formula_sum   'Cs2 H2 C16 N8 O4'
_cell_volume   479.85147659
_cell_formula_units_Z   2
loop_
 _symmetry_equiv_pos_site_id
 _symmetry_equiv_pos_as_xyz
  1  'x, y, z'
loop_
 _atom_site_type_symbol
 _atom_site_label
 _atom_site_symmetry_multiplicity
 _atom_site_fract_x
 _atom_site_fract_y
 _atom_site_fract_z
 _atom_site_occupancy
 _atom_site_hle17_bader_spin_density
 _atom_site_hle17_ddec_charge
 _atom_site_hle17_ddec_spin_density
 _atom_site_hle17_ddec_sum_bond_order
 _atom_site_hle17_magmom
 _atom_site_hse06_10hf_bader_spin_density
 _atom_site_hse06_10hf_ddec_charge
 _atom_site_hse06_10hf_ddec_spin_density
 _atom_site_hse06_10hf_ddec_sum_bond_order
 _atom_site_hse06_10hf_magmom
 _atom_site_hse06_bader_spin_density
 _atom_site_hse06_ddec_charge
 _atom_site_hse06_ddec_spin_density
 _atom_site_hse06_ddec_sum_bond_order
 _atom_site_hse06_magmom
 _atom_site_pbe_bader_spin_density
 _atom_site_pbe_cm5_charge
 _atom_site_pbe_ddec_charge
 _atom_site_pbe_ddec_spin_density
 _atom_site_pbe_ddec_sum_bond_order
 _atom_site_pbe_magmom
Cs  Cs0  1  0.11374726  0.27963526  0.01096948  1  0  0.950206  0  0.508959  0  0  0.893825  0  0.738502  0  0  0.90803  0  0.716378  0  0  0.881274  0.883506  0  0.754232  0
Cs  Cs1  1  0.88625697  0.72036470  0.98903158  1  0  0.950198  0  0.508964  0  0  0.893815  0  0.73851  0  0  0.908018  0  0.716386  0  0  0.881269  0.883491  0  0.75424  0
H  H2  1  0.03802511  0.88692822  0.38914443  1  0  0.332432  0  0.914798  0  0  0.31036  0  0.979935  0  0  0.320949  0  0.970944  0  0  0.311342  0.302951  0  0.986206  0
H  H3  1  0.96197402  0.11307174  0.61085555  1  0  0.332437  0  0.914791  0  0  0.310366  0  0.979924  0  0  0.320954  0  0.970932  0  0  0.311346  0.302958  0  0.986194  0
C  C4  1  0.25348017  0.93121465  0.58771081  1  0  0.580599  0  3.844795  0  0  0.52976  0  4.140223  0  0  0.559608  0  4.142181  0  0  0.243103  0.509605  0  4.138323  0
C  C5  1  0.74651895  0.06878532  0.41228918  1  0  0.580657  0  3.844829  0  0  0.529796  0  4.140294  0  0  0.559651  0  4.142248  0  0  0.243106  0.509642  0  4.138392  0
C  C6  1  0.44301373  0.85840621  0.61067198  1  0  -0.244311  0  3.868794  0  0  -0.231467  0  4.122248  0  0  -0.248396  0  4.142427  0  0  -0.039655  -0.220168  0  4.108397  0
C  C7  1  0.55698369  0.14159375  0.38932800  1  0  -0.244316  0  3.868846  0  0  -0.231458  0  4.122322  0  0  -0.248411  0  4.142513  0  0  -0.039641  -0.22016  0  4.108456  0
C  C8  1  0.47443764  0.74118161  0.47294457  1  0  -0.006087  0  3.744472  0  0  -0.015998  0  3.991121  0  0  -0.00703  0  4.007539  0  0  0.019425  -0.021388  0  3.9795  0
C  C9  1  0.52556183  0.25881955  0.52705484  1  0  -0.006043  0  3.744444  0  0  -0.015968  0  3.9911  0  0  -0.006997  0  4.007525  0  0  0.019434  -0.021365  0  3.979486  0
C  C10  1  0.29294565  0.73992345  0.35977108  1  0  0.579991  0  3.78904  0  0  0.539032  0  4.07231  0  0  0.567168  0  4.06868  0  0  0.264312  0.519832  0  4.074277  0
C  C11  1  0.70705347  0.26007651  0.64023096  1  0  0.579926  0  3.788967  0  0  0.538997  0  4.072204  0  0  0.567133  0  4.068574  0  0  0.264312  0.5198  0  4.074172  0
C  C12  1  0.63469793  0.64052744  0.43320084  1  0  -0.107096  0  3.913174  0  0  -0.093221  0  4.154432  0  0  -0.105155  0  4.174784  0  0  -0.008501  -0.0855  0  4.140823  0
C  C13  1  0.36529949  0.35947253  0.56679913  1  0  -0.107083  0  3.913184  0  0  -0.093194  0  4.154442  0  0  -0.105136  0  4.174791  0  0  -0.008519  -0.085484  0  4.140839  0
C  C14  1  0.65201772  0.53842153  0.28378638  1  0  0.303563  0  3.815014  0  0  0.282984  0  4.096224  0  0  0.296381  0  4.114466  0  0  0.18784  0.273912  0  4.083903  0
C  C15  1  0.34798140  0.46157844  0.71621361  1  0  0.303538  0  3.815024  0  0  0.282954  0  4.096232  0  0  0.296356  0  4.11447  0  0  0.187839  0.27389  0  4.083898  0
C  C16  1  0.79163462  0.63922463  0.54401884  1  0  0.289577  0  3.793826  0  0  0.273658  0  4.070939  0  0  0.28541  0  4.091484  0  0  0.182245  0.265736  0  4.057104  0
C  C17  1  0.20836656  0.36077653  0.45598161  1  0  0.2896  0  3.793814  0  0  0.273679  0  4.070927  0  0  0.285435  0  4.091467  0  0  0.182272  0.265763  0  4.05709  0
C  C18  1  0.57587500  0.91385747  0.74821891  1  0  0.34252  0  3.820698  0  0  0.324974  0  4.092594  0  0  0.340318  0  4.108811  0  0  0.193192  0.314559  0  4.081571  0
C  C19  1  0.42412583  0.08614250  0.25178110  1  0  0.342483  0  3.820664  0  0  0.324931  0  4.092568  0  0  0.340287  0  4.108776  0  0  0.193173  0.314521  0  4.081533  0
N  N20  1  0.16872895  0.85381313  0.43728063  1  0  -0.536491  0  3.27832  0  0  -0.478121  0  3.519282  0  0  -0.504302  0  3.522601  0  0  -0.401716  -0.460157  0  3.516578  0
N  N21  1  0.83127018  0.14618684  0.56271935  1  0  -0.53651  0  3.278275  0  0  -0.478137  0  3.519238  0  0  -0.504319  0  3.522555  0  0  -0.40173  -0.460179  0  3.516541  0
N  N22  1  0.91709198  0.64080452  0.63938681  1  0  -0.430934  0  2.604606  0  0  -0.411984  0  2.843469  0  0  -0.425695  0  2.859419  0  0  -0.375751  -0.402746  0  2.832764  0
N  N23  1  0.08290885  0.35919545  0.36061320  1  0  -0.430966  0  2.604585  0  0  -0.412018  0  2.843449  0  0  -0.425727  0  2.859398  0  0  -0.375766  -0.402778  0  2.832744  0
N  N24  1  0.67750745  0.45404560  0.16201391  1  0  -0.481856  0  2.624092  0  0  -0.46167  0  2.865331  0  0  -0.473931  0  2.875794  0  0  -0.415749  -0.453385  0  2.858401  0
N  N25  1  0.32249167  0.54595436  0.83798710  1  0  -0.481852  0  2.624078  0  0  -0.461662  0  2.865311  0  0  -0.473923  0  2.875774  0  0  -0.415748  -0.453377  0  2.858377  0
N  N26  1  0.68971507  0.96464139  0.86278819  1  0  -0.487991  0  2.606913  0  0  -0.464012  0  2.83949  0  0  -0.476115  0  2.84888  0  0  -0.414209  -0.455705  0  2.83319  0
N  N27  1  0.31028746  0.03535858  0.13721081  1  0  -0.487969  0  2.60686  0  0  -0.463992  0  2.839435  0  0  -0.476092  0  2.848819  0  0  -0.414204  -0.455683  0  2.833132  0
O  O28  1  0.17781910  0.04436298  0.67898020  1  0  -0.553648  0  1.974425  0  0  -0.506869  0  2.199307  0  0  -0.528366  0  2.194182  0  0  -0.317502  -0.49208  0  2.202495  0
O  O29  1  0.82218038  0.95563817  0.32102126  1  0  -0.553674  0  1.974492  0  0  -0.506884  0  2.199384  0  0  -0.528381  0  2.194255  0  0  -0.317506  -0.492095  0  2.202572  0
O  O30  1  0.26083211  0.65601413  0.22550548  1  0  -0.530471  0  1.946054  0  0  -0.491248  0  2.16522  0  0  -0.508872  0  2.159879  0  0  -0.309645  -0.478968  0  2.168664  0
O  O31  1  0.73916907  0.34398703  0.77449395  1  0  -0.530431  0  1.946037  0  0  -0.491228  0  2.165202  0  0  -0.508848  0  2.159857  0  0  -0.309642  -0.478948  0  2.168644  0
