# generated using pymatgen
data_CuH12C14(ClO4)2
_symmetry_space_group_name_H-M   'P 1'
_cell_length_a   3.70903412
_cell_length_b   7.13273692
_cell_length_c   14.88655072
_cell_angle_alpha   78.08522353
_cell_angle_beta   87.95864394
_cell_angle_gamma   84.43852298
_symmetry_Int_Tables_number   1
_chemical_formula_structural   CuH12C14(ClO4)2
_chemical_formula_sum   'Cu1 H12 C14 Cl2 O8'
_cell_volume   383.48409432
_cell_formula_units_Z   1
loop_
 _symmetry_equiv_pos_site_id
 _symmetry_equiv_pos_as_xyz
  1  'x, y, z'
loop_
 _atom_site_type_symbol
 _atom_site_label
 _atom_site_symmetry_multiplicity
 _atom_site_fract_x
 _atom_site_fract_y
 _atom_site_fract_z
 _atom_site_occupancy
 _atom_site_hle17_ddec_charge
 _atom_site_hle17_ddec_spin_density
 _atom_site_hle17_ddec_sum_bond_order
 _atom_site_hle17_magmom
 _atom_site_hse06_10hf_ddec_charge
 _atom_site_hse06_10hf_ddec_spin_density
 _atom_site_hse06_10hf_ddec_sum_bond_order
 _atom_site_hse06_10hf_magmom
 _atom_site_hse06_ddec_charge
 _atom_site_hse06_ddec_spin_density
 _atom_site_hse06_ddec_sum_bond_order
 _atom_site_hse06_magmom
 _atom_site_pbe_cm5_charge
 _atom_site_pbe_ddec_charge
 _atom_site_pbe_ddec_spin_density
 _atom_site_pbe_ddec_sum_bond_order
 _atom_site_pbe_magmom
Cu  Cu0  1  0.49999572  0.49999602  0.50000295  1  1.069086  0.706081  1.590115  0.542  1.078347  0.805572  1.963405  0.67  1.156957  0.861524  1.906518  0.749  0.718018  1.018634  0.764424  2.015917  0.616
H  H1  1  0.32801183  0.83110617  0.24611226  1  0.125007  -6.7e-05  0.936997  0.0  0.136879  1.8e-05  0.990528  0.0  0.13993  1.6e-05  0.989835  0.0  0.108839  0.134628  2.4e-05  0.991298  0.0
H  H2  1  0.67198452  0.16888875  0.75389330  1  0.124975  -5.8e-05  0.93711  0.0  0.136857  1.8e-05  0.990613  0.0  0.139894  1.6e-05  0.989942  0.0  0.108848  0.134617  2.4e-05  0.991356  0.0
H  H3  1  0.53040585  0.93811071  0.08552425  1  0.093124  -1.6e-05  0.994408  0.0  0.096886  -3e-06  1.070004  0.0  0.100241  -9e-06  1.067009  0.0  0.088795  0.094463  4e-06  1.07212  0.0
H  H4  1  0.46957657  0.06188695  0.91447644  1  0.093109  -5.2e-05  0.994475  0.0  0.09687  -3e-06  1.070076  0.0  0.100234  -8e-06  1.067052  0.0  0.088758  0.094436  4e-06  1.072218  0.0
H  H5  1  0.83566149  0.46358822  0.14898583  1  0.11808  -5.1e-05  0.951777  0.0  0.124753  1.8e-05  1.018646  0.0  0.128386  3e-06  1.015306  0.0  0.101305  0.122097  3.7e-05  1.021116  0.0
H  H6  1  0.16433969  0.53641060  0.85100451  1  0.118031  -4.3e-05  0.951699  0.0  0.124616  1.8e-05  1.018709  0.0  0.128247  3e-06  1.015372  0.0  0.101277  0.121971  3.7e-05  1.021172  0.0
H  H7  1  0.99299648  0.37381877  0.62269280  1  0.421708  -0.000494  0.891608  0.0  0.388553  0.000212  0.961462  0.001  0.401629  3.1e-05  0.942656  0.0  0.288265  0.379313  0.000367  0.974663  0.001
H  H8  1  0.00699719  0.62617609  0.37731078  1  0.421739  -0.000488  0.891564  0.0  0.388563  0.000211  0.961452  0.0  0.401639  3e-05  0.942645  0.0  0.288278  0.379322  0.000367  0.974653  0.001
H  H9  1  0.82846566  0.19347216  0.58815279  1  0.435831  -0.000308  0.858286  -0.001  0.410951  0.000354  0.911936  0.0  0.423509  0.000145  0.893911  0.0  0.300297  0.401796  0.00052  0.925015  0.0
H  H10  1  0.17153049  0.80652407  0.41184793  1  0.435698  -0.000315  0.858473  -0.001  0.410885  0.000354  0.912028  0.0  0.423417  0.000145  0.894033  0.0  0.300261  0.401739  0.00052  0.925099  0.0
H  H11  1  0.38653572  0.13206948  0.40995173  1  0.40176  1e-06  0.875872  0.0  0.374727  0.000293  0.945643  0.0  0.387151  0.000154  0.932057  0.0  0.309413  0.365977  0.000458  0.955013  0.0
H  H12  1  0.61344864  0.86794825  0.59004415  1  0.401805  9e-06  0.875842  0.0  0.374709  0.000293  0.945704  0.0  0.387127  0.000154  0.932122  0.0  0.30941  0.36599  0.000458  0.955014  0.0
C  C13  1  0.61431714  0.26546426  0.26118294  1  -0.195539  0.008545  3.758136  0.009  -0.18034  0.004435  4.006788  0.005  -0.19477  0.003045  4.029534  0.004  -0.037393  -0.170941  0.005674  3.991682  0.007
C  C14  1  0.38569098  0.73454065  0.73881879  1  -0.195621  0.008554  3.758315  0.009  -0.180426  0.004435  4.006884  0.005  -0.194853  0.003046  4.029624  0.004  -0.037414  -0.171045  0.005674  3.991807  0.007
C  C15  1  0.46527758  0.08679795  0.28864909  1  0.329986  0.001342  3.766026  0.001  0.305772  -0.000736  4.037421  -0.001  0.320055  -0.000761  4.052998  -0.001  0.085263  0.296038  -0.000667  4.026792  -0.001
C  C16  1  0.53473106  0.91320403  0.71135092  1  0.330032  0.001313  3.765866  0.001  0.305836  -0.000733  4.03717  -0.001  0.320131  -0.00076  4.052732  -0.001  0.085315  0.296099  -0.000667  4.026556  -0.001
C  C17  1  0.43842506  0.96963194  0.22506483  1  -0.161939  0.002094  3.704803  0.002  -0.181981  0.000298  3.963086  0.0  -0.189598  0.000242  3.983578  0.0  -0.100933  -0.176968  0.000437  3.949248  0.001
C  C18  1  0.56159190  0.03036866  0.77493728  1  -0.161891  0.002079  3.70469  0.002  -0.181938  0.000299  3.962919  0.0  -0.189544  0.000241  3.983406  0.0  -0.100961  -0.176924  0.000437  3.949083  0.001
C  C19  1  0.55160482  0.02978693  0.13473197  1  -0.08313  -0.001788  3.756042  -0.001  -0.107476  -0.000703  4.009619  0.0  -0.10525  -0.000729  4.028088  0.0  -0.088509  -0.108617  -0.000705  3.996989  0.0
C  C20  1  0.44839156  0.97020789  0.86527024  1  -0.083154  -0.001682  3.755922  -0.001  -0.107527  -0.000709  4.009548  0.0  -0.105296  -0.000729  4.028021  0.0  -0.088483  -0.108669  -0.000705  3.996908  0.0
C  C21  1  0.68931252  0.20869561  0.10691772  1  0.109629  0.004603  3.818252  0.005  0.119756  0.000367  4.089939  0.001  0.118817  0.000282  4.112444  0.0  0.001884  0.120027  0.000554  4.074743  0.001
C  C22  1  0.31068393  0.79129908  0.89307980  1  0.109659  0.004636  3.818289  0.005  0.11977  0.000368  4.089939  0.001  0.118829  0.000281  4.112448  0.0  0.001838  0.120042  0.000554  4.07474  0.001
C  C23  1  0.72281306  0.32576028  0.16923606  1  -0.100511  -0.000223  3.734195  0.0  -0.136255  0.000254  3.990562  0.001  -0.133667  -3e-05  4.010664  0.0  -0.087955  -0.137681  0.000452  3.976905  0.001
C  C24  1  0.27718925  0.67424734  0.83075939  1  -0.100393  -0.000289  3.734357  0.0  -0.136097  0.000254  3.99074  0.001  -0.133509  -2.9e-05  4.010847  0.0  -0.087875  -0.137534  0.000452  3.977098  0.001
C  C25  1  0.66588277  0.39025149  0.32705147  1  0.671606  -0.003894  3.842902  -0.004  0.619653  -0.000305  4.145964  -0.001  0.658935  -0.000842  4.135872  -0.001  0.214243  0.592903  0.000248  4.151605  -0.001
C  C26  1  0.33412615  0.60974900  0.67294668  1  0.671478  -0.003919  3.843021  -0.004  0.619553  -0.000305  4.146038  -0.001  0.65883  -0.000844  4.135951  -0.001  0.21424  0.592809  0.000246  4.151686  -0.001
Cl  Cl27  1  0.82659979  0.28032506  0.99347883  1  -0.089208  0.001923  1.441374  0.002  -0.072729  0.000243  1.694836  0.0  -0.07737  0.000137  1.69191  0.0  0.013929  -0.069274  0.000402  1.696922  0.001
Cl  Cl28  1  0.17341089  0.71964956  0.00652337  1  -0.089265  0.001919  1.441315  0.002  -0.072778  0.000243  1.694767  0.0  -0.077415  0.000136  1.691845  0.0  0.013917  -0.06932  0.000402  1.696846  0.001
O  O29  1  0.53114735  0.33327961  0.40998436  1  -0.64065  0.069855  2.102205  0.101  -0.600099  0.046887  2.378018  0.074  -0.640945  0.034877  2.365491  0.06  -0.330273  -0.571236  0.054727  2.38575  0.082
O  O30  1  0.46885836  0.66672379  0.59001486  1  -0.640567  0.069858  2.102121  0.101  -0.600028  0.046889  2.377954  0.074  -0.640858  0.034879  2.365419  0.06  -0.3302  -0.571191  0.054726  2.385711  0.082
O  O31  1  0.83067367  0.53875894  0.30339680  1  -0.588601  0.002125  1.981203  0.004  -0.53585  0.000787  2.206054  0.002  -0.561487  -0.000403  2.195824  0.001  -0.300004  -0.517793  0.002123  2.212296  0.004
O  O32  1  0.16934382  0.46123873  0.69660359  1  -0.588513  0.002143  1.981312  0.004  -0.535773  0.000786  2.206137  0.002  -0.561407  -0.000402  2.195905  0.001  -0.30006  -0.517718  0.002123  2.212381  0.004
O  O33  1  0.89543637  0.32786409  0.56820161  1  -0.85297  0.057522  1.992107  0.083  -0.831936  0.04257  2.23368  0.066  -0.86235  0.031869  2.190525  0.054  -0.58158  -0.808963  0.049869  2.263932  0.072
O  O34  1  0.10456143  0.67213801  0.43180252  1  -0.852887  0.057533  1.992154  0.083  -0.831883  0.042571  2.233661  0.066  -0.862273  0.03187  2.190556  0.054  -0.581574  -0.808916  0.04987  2.26389  0.072
O  O35  1  0.34727424  0.02493027  0.37688334  1  -0.528696  0.005776  2.122922  0.008  -0.470412  0.002226  2.330006  0.003  -0.491674  0.001212  2.317974  0.002  -0.344586  -0.455059  0.003265  2.33793  0.005
O  O36  1  0.65270717  0.97508892  0.62311308  1  -0.528805  0.005776  2.122865  0.008  -0.470405  0.002225  2.329931  0.003  -0.491691  0.001211  2.31792  0.002  -0.344591  -0.455056  0.003266  2.337801  0.005
