# generated using pymatgen
data_CoH8(C3O2)2
_symmetry_space_group_name_H-M   'P 1'
_cell_length_a   4.57275145
_cell_length_b   8.89181595
_cell_length_c   8.89180696
_cell_angle_alpha   82.96467799
_cell_angle_beta   76.15781097
_cell_angle_gamma   76.15776673
_symmetry_Int_Tables_number   1
_chemical_formula_structural   CoH8(C3O2)2
_chemical_formula_sum   'Co2 H16 C12 O8'
_cell_volume   340.02967476
_cell_formula_units_Z   2
loop_
 _symmetry_equiv_pos_site_id
 _symmetry_equiv_pos_as_xyz
  1  'x, y, z'
loop_
 _atom_site_type_symbol
 _atom_site_label
 _atom_site_symmetry_multiplicity
 _atom_site_fract_x
 _atom_site_fract_y
 _atom_site_fract_z
 _atom_site_occupancy
 _atom_site_pbe_cm5_charge
 _atom_site_pbe_ddec_charge
 _atom_site_pbe_ddec_spin_density
 _atom_site_pbe_ddec_sum_bond_order
 _atom_site_pbe_magmom
Co  Co0  1  0.25000089  0.05623215  0.94376860  1  0.62062  0.892383  -2.780867  2.515333  -2.558
Co  Co1  1  0.75000099  0.94376796  0.05623146  1  0.620585  0.89235  -2.78091  2.515311  -2.558
H  H2  1  0.69352520  0.50915243  0.72419533  1  0.090127  0.126138  -8.2e-05  1.010164  0.0
H  H3  1  0.80647227  0.27580489  0.49084779  1  0.090127  0.126133  -8.2e-05  1.010147  0.0
H  H4  1  0.30647717  0.49084652  0.27580480  1  0.09013  0.126152  -8.2e-05  1.010155  0.0
H  H5  1  0.19352060  0.72419524  0.50915451  1  0.09014  0.12616  -8.2e-05  1.010145  0.0
H  H6  1  0.30325253  0.61365731  0.77569761  1  0.091634  0.131152  -0.000166  1.007216  0.0
H  H7  1  0.19674676  0.22430323  0.38634296  1  0.09163  0.131139  -0.000166  1.007236  0.0
H  H8  1  0.69675110  0.38634396  0.22430097  1  0.091639  0.131147  -0.000166  1.007233  0.0
H  H9  1  0.80324962  0.77569922  0.61365638  1  0.091644  0.131169  -0.000166  1.00719  0.0
H  H10  1  0.38479889  0.41771103  0.72718919  1  0.090625  0.128522  -0.0  1.01867  0.0
H  H11  1  0.11520058  0.27281169  0.58228970  1  0.090629  0.128532  -0.0  1.018649  0.0
H  H12  1  0.61520073  0.58228909  0.27281115  1  0.090617  0.128523  -1e-06  1.018666  0.0
H  H13  1  0.88479903  0.72718843  0.41770951  1  0.090615  0.128506  -1e-06  1.018682  0.0
H  H14  1  0.21385090  0.43399527  0.01386843  1  0.105787  0.097523  -0.000624  0.994854  -0.001
H  H15  1  0.28614777  0.98613280  0.56600459  1  0.10579  0.097533  -0.000624  0.994847  -0.001
H  H16  1  0.78614195  0.56600487  0.98613163  1  0.105789  0.097534  -0.000624  0.994889  -0.001
H  H17  1  0.71385815  0.01386845  0.43399595  1  0.105784  0.097532  -0.000624  0.994886  -0.001
C  C18  1  0.65370581  0.28366194  0.96859968  1  0.23542  0.635138  0.001443  4.00863  0.0
C  C19  1  0.84629077  0.03139995  0.71633867  1  0.235419  0.635149  0.001443  4.008577  0.0
C  C20  1  0.34629607  0.71633817  0.03140038  1  0.235394  0.635151  0.001445  4.008446  0.0
C  C21  1  0.15370435  0.96860018  0.28366224  1  0.235409  0.63519  0.001445  4.00841  0.0
C  C22  1  0.45909929  0.49952517  0.78510919  1  -0.24277  -0.383189  -0.000471  3.906898  -0.001
C  C23  1  0.04090066  0.21488993  0.50047453  1  -0.242779  -0.383196  -0.000471  3.90687  -0.001
C  C24  1  0.54089808  0.50047496  0.21489143  1  -0.242783  -0.383218  -0.000472  3.906924  -0.001
C  C25  1  0.95909717  0.78510904  0.49952280  1  -0.242805  -0.383236  -0.000472  3.906875  -0.001
C  C26  1  0.44918834  0.44426796  0.95617236  1  -0.085953  -0.091471  -0.006042  3.858271  -0.009
C  C27  1  0.05081002  0.04382846  0.55573209  1  -0.085965  -0.09149  -0.006043  3.858238  -0.009
C  C28  1  0.55081080  0.55573332  0.04382903  1  -0.085973  -0.091541  -0.006043  3.858336  -0.009
C  C29  1  0.94918782  0.95617051  0.44426636  1  -0.085958  -0.091545  -0.006043  3.858298  -0.009
O  O30  1  0.51869152  0.17236452  0.03467476  1  -0.312183  -0.585956  -0.064283  2.529767  -0.111
O  O31  1  0.98130958  0.96532609  0.82763589  1  -0.312198  -0.585967  -0.064284  2.529751  -0.111
O  O32  1  0.48130986  0.82763675  0.96532297  1  -0.312171  -0.585942  -0.064289  2.529689  -0.111
O  O33  1  0.01868857  0.03467752  0.17236309  1  -0.31218  -0.585969  -0.064289  2.529688  -0.111
O  O34  1  0.94150640  0.26547986  0.91781241  1  -0.282956  -0.503998  -0.039327  2.320598  -0.068
O  O35  1  0.55849129  0.08218885  0.73452079  1  -0.282959  -0.504012  -0.039327  2.320584  -0.068
O  O36  1  0.05849225  0.73452258  0.08218777  1  -0.28296  -0.504011  -0.039329  2.320521  -0.068
O  O37  1  0.44150831  0.91781128  0.26547730  1  -0.282961  -0.504014  -0.039328  2.32051  -0.068
