# generated using pymatgen
data_CuHCBrN2
_symmetry_space_group_name_H-M   'P 1'
_cell_length_a   6.27896057
_cell_length_b   6.58923829
_cell_length_c   9.60101059
_cell_angle_alpha   89.99746187
_cell_angle_beta   90.00245362
_cell_angle_gamma   118.53631891
_symmetry_Int_Tables_number   1
_chemical_formula_structural   CuHCBrN2
_chemical_formula_sum   'Cu4 H4 C4 Br4 N8'
_cell_volume   348.97059806
_cell_formula_units_Z   4
loop_
 _symmetry_equiv_pos_site_id
 _symmetry_equiv_pos_as_xyz
  1  'x, y, z'
loop_
 _atom_site_type_symbol
 _atom_site_label
 _atom_site_symmetry_multiplicity
 _atom_site_fract_x
 _atom_site_fract_y
 _atom_site_fract_z
 _atom_site_occupancy
 _atom_site_hle17_bader_spin_density
 _atom_site_hle17_ddec_charge
 _atom_site_hle17_ddec_spin_density
 _atom_site_hle17_ddec_sum_bond_order
 _atom_site_hle17_magmom
 _atom_site_hse06_10hf_bader_spin_density
 _atom_site_hse06_10hf_ddec_charge
 _atom_site_hse06_10hf_ddec_spin_density
 _atom_site_hse06_10hf_ddec_sum_bond_order
 _atom_site_hse06_10hf_magmom
 _atom_site_hse06_bader_spin_density
 _atom_site_hse06_ddec_charge
 _atom_site_hse06_ddec_spin_density
 _atom_site_hse06_ddec_sum_bond_order
 _atom_site_hse06_magmom
 _atom_site_pbe_bader_spin_density
 _atom_site_pbe_cm5_charge
 _atom_site_pbe_ddec_charge
 _atom_site_pbe_ddec_spin_density
 _atom_site_pbe_ddec_sum_bond_order
 _atom_site_pbe_magmom
Cu  Cu0  1  0.60265400  0.72765596  0.75000819  1  0  0.459836  0  2.102743  0  0  0.352475  0  2.60848  0  0  0.337039  0  2.574059  0  0  0.476761  0.363325  0  2.629999  0
Cu  Cu1  1  0.39735111  0.27234233  0.25000748  1  0  0.459951  0  2.10284  0  0  0.352763  0  2.608608  0  0  0.337328  0  2.574162  0  0  0.476918  0.363584  0  2.630076  0
Cu  Cu2  1  0.12585618  0.72867303  0.25001345  1  0  0.462088  0  2.101965  0  0  0.355098  0  2.607366  0  0  0.339802  0  2.573035  0  0  0.477338  0.365698  0  2.629071  0
Cu  Cu3  1  0.87413477  0.27130971  0.74999285  1  0  0.461905  0  2.101731  0  0  0.354876  0  2.607136  0  0  0.33956  0  2.572775  0  0  0.477305  0.36552  0  2.628875  0
H  H4  1  0.79365742  0.58772347  0.50009451  1  0  0.088878  0  0.944757  0  0  0.091172  0  1.018541  0  0  0.097556  0  1.011336  0  0  0.122929  0.086664  0  1.023933  0
H  H5  1  0.20634016  0.41227946  0.00008524  1  0  0.088824  0  0.944693  0  0  0.091125  0  1.018478  0  0  0.097492  0  1.011331  0  0  0.122931  0.086628  0  1.023836  0
H  H6  1  0.20635666  0.41228001  0.49992950  1  0  0.08876  0  0.944838  0  0  0.091052  0  1.018659  0  0  0.097437  0  1.011459  0  0  0.122906  0.086541  0  1.024045  0
H  H7  1  0.79367561  0.58774647  0.99991897  1  0  0.088792  0  0.945128  0  0  0.091078  0  1.018908  0  0  0.097459  0  1.011701  0  0  0.12294  0.086574  0  1.024296  0
C  C8  1  0.88797045  0.77613397  0.50005446  1  0  0.247165  0  3.674008  0  0  0.196472  0  3.946959  0  0  0.203458  0  3.947226  0  0  0.17384  0.190285  0  3.947892  0
C  C9  1  0.11196563  0.22384474  0.00002008  1  0  0.247206  0  3.673761  0  0  0.196499  0  3.946823  0  0  0.203496  0  3.947059  0  0  0.173977  0.190319  0  3.94774  0
C  C10  1  0.11198432  0.22384011  0.49997995  1  0  0.247212  0  3.673569  0  0  0.196515  0  3.946627  0  0  0.203486  0  3.946899  0  0  0.173922  0.190341  0  3.947527  0
C  C11  1  0.88797844  0.77612070  0.99996330  1  0  0.247348  0  3.673767  0  0  0.196655  0  3.946774  0  0  0.203678  0  3.947046  0  0  0.173896  0.190457  0  3.947716  0
Br  Br12  1  0.51881239  0.31797287  0.75001317  1  0  -0.487051  0  1.378491  0  0  -0.431323  0  1.789694  0  0  -0.455231  0  1.766316  0  0  -0.263652  -0.415079  0  1.805097  0
Br  Br13  1  0.48119924  0.68202888  0.25000354  1  0  -0.487044  0  1.378367  0  0  -0.431381  0  1.789626  0  0  -0.455296  0  1.766265  0  0  -0.263684  -0.415168  0  1.804998  0
Br  Br14  1  0.79945383  0.31877376  0.25004787  1  0  -0.487482  0  1.377328  0  0  -0.432181  0  1.788914  0  0  -0.45604  0  1.765475  0  0  -0.264084  -0.416044  0  1.804344  0
Br  Br15  1  0.20055579  0.68121763  0.74983760  1  0  -0.487481  0  1.377367  0  0  -0.432171  0  1.788956  0  0  -0.456028  0  1.765513  0  0  -0.264089  -0.416002  0  1.804415  0
N  N16  1  0.81024479  0.88237810  0.58901532  1  0  -0.153957  0  3.221394  0  0  -0.103578  0  3.530884  0  0  -0.090534  0  3.517295  0  0  -0.254862  -0.111749  0  3.539814  0
N  N17  1  0.18978299  0.11762592  0.08904258  1  0  -0.154067  0  3.220137  0  0  -0.103891  0  3.529894  0  0  -0.090796  0  3.516303  0  0  -0.254907  -0.112061  0  3.538788  0
N  N18  1  0.07225331  0.88250462  0.41100489  1  0  -0.155907  0  3.22215  0  0  -0.106134  0  3.532253  0  0  -0.093291  0  3.518839  0  0  -0.255174  -0.114205  0  3.541068  0
N  N19  1  0.92774993  0.11751041  0.91103001  1  0  -0.155601  0  3.223047  0  0  -0.105757  0  3.533013  0  0  -0.092945  0  3.519642  0  0  -0.255163  -0.113816  0  3.541855  0
N  N20  1  0.18977161  0.11762366  0.41097119  1  0  -0.153799  0  3.220261  0  0  -0.10359  0  3.530004  0  0  -0.090505  0  3.516397  0  0  -0.25485  -0.111754  0  3.538891  0
N  N21  1  0.81023004  0.88239137  0.91098872  1  0  -0.154066  0  3.220839  0  0  -0.103819  0  3.530474  0  0  -0.090811  0  3.516946  0  0  -0.254871  -0.111977  0  3.539396  0
N  N22  1  0.92774788  0.11749540  0.58898058  1  0  -0.155635  0  3.222837  0  0  -0.105896  0  3.532894  0  0  -0.093053  0  3.519462  0  0  -0.255159  -0.11396  0  3.541742  0
N  N23  1  0.07226716  0.88250861  0.08899295  1  0  -0.155876  0  3.222153  0  0  -0.106057  0  3.532203  0  0  -0.093259  0  3.518825  0  0  -0.255171  -0.11412  0  3.541023  0
