# generated using pymatgen
data_ZnH4(CO)4
_symmetry_space_group_name_H-M   'P 1'
_cell_length_a   4.87948985
_cell_length_b   4.87949086
_cell_length_c   11.22876800
_cell_angle_alpha   83.42101107
_cell_angle_beta   83.42116187
_cell_angle_gamma   89.06561933
_symmetry_Int_Tables_number   1
_chemical_formula_structural   ZnH4(CO)4
_chemical_formula_sum   'Zn2 H8 C8 O8'
_cell_volume   263.83973760
_cell_formula_units_Z   2
loop_
 _symmetry_equiv_pos_site_id
 _symmetry_equiv_pos_as_xyz
  1  'x, y, z'
loop_
 _atom_site_type_symbol
 _atom_site_label
 _atom_site_symmetry_multiplicity
 _atom_site_fract_x
 _atom_site_fract_y
 _atom_site_fract_z
 _atom_site_occupancy
 _atom_site_hle17_bader_spin_density
 _atom_site_hle17_ddec_charge
 _atom_site_hle17_ddec_spin_density
 _atom_site_hle17_ddec_sum_bond_order
 _atom_site_hle17_magmom
 _atom_site_hse06_10hf_bader_spin_density
 _atom_site_hse06_10hf_ddec_charge
 _atom_site_hse06_10hf_ddec_spin_density
 _atom_site_hse06_10hf_ddec_sum_bond_order
 _atom_site_hse06_10hf_magmom
 _atom_site_hse06_bader_spin_density
 _atom_site_hse06_ddec_charge
 _atom_site_hse06_ddec_spin_density
 _atom_site_hse06_ddec_sum_bond_order
 _atom_site_hse06_magmom
 _atom_site_pbe_bader_spin_density
 _atom_site_pbe_cm5_charge
 _atom_site_pbe_ddec_charge
 _atom_site_pbe_ddec_spin_density
 _atom_site_pbe_ddec_sum_bond_order
 _atom_site_pbe_magmom
Zn  Zn0  1  0.51426422  0.48573612  0.24999991  1  0  1.175401  0  1.707028  0  0  0.997242  0  2.189056  0  0  1.048777  0  2.12354  0  0  0.705798  0.960713  0  2.234504  0
Zn  Zn1  1  0.48573674  0.51426436  0.75000042  1  0  1.175389  0  1.707009  0  0  0.997248  0  2.18903  0  0  1.048784  0  2.123515  0  0  0.705806  0.96072  0  2.234476  0
H  H2  1  0.02921680  0.75819244  0.09985774  1  0  0.120135  0  0.934291  0  0  0.133335  0  0.997745  0  0  0.135903  0  0.996282  0  0  0.106695  0.131452  0  0.998939  0
H  H3  1  0.75819429  0.02921864  0.59985855  1  0  0.120149  0  0.934261  0  0  0.13335  0  0.997707  0  0  0.135918  0  0.996249  0  0  0.106685  0.131467  0  0.998902  0
H  H4  1  0.97078212  0.24180391  0.90014201  1  0  0.120145  0  0.934262  0  0  0.133354  0  0.997714  0  0  0.135923  0  0.996253  0  0  0.1067  0.131472  0  0.998908  0
H  H5  1  0.24180461  0.97078390  0.40014179  1  0  0.12015  0  0.934316  0  0  0.133348  0  0.997756  0  0  0.135916  0  0.996297  0  0  0.106699  0.131465  0  0.998948  0
H  H6  1  0.79923246  0.76177063  0.99228610  1  0  0.124231  0  0.926908  0  0  0.137803  0  0.986927  0  0  0.140209  0  0.986291  0  0  0.107711  0.136095  0  0.987429  0
H  H7  1  0.76177212  0.79923473  0.49228621  1  0  0.124242  0  0.9269  0  0  0.137813  0  0.986913  0  0  0.140222  0  0.986278  0  0  0.107725  0.136106  0  0.987415  0
H  H8  1  0.20076439  0.23822778  0.00771455  1  0  0.124248  0  0.926881  0  0  0.13782  0  0.986907  0  0  0.140233  0  0.986266  0  0  0.107726  0.136113  0  0.98741  0
H  H9  1  0.23822886  0.20076369  0.50771334  1  0  0.124249  0  0.926917  0  0  0.137817  0  0.986925  0  0  0.140224  0  0.986291  0  0  0.10772  0.136109  0  0.987427  0
C  C10  1  0.90786369  0.89849597  0.04235748  1  0  -0.260725  0  3.692253  0  0  -0.299069  0  3.938669  0  0  -0.304981  0  3.947016  0  0  -0.168791  -0.294954  0  3.932756  0
C  C11  1  0.89849963  0.90786356  0.54235787  1  0  -0.260718  0  3.692211  0  0  -0.299073  0  3.938601  0  0  -0.304973  0  3.94692  0  0  -0.168785  -0.294958  0  3.932686  0
C  C12  1  0.09213730  0.10150038  0.95764128  1  0  -0.260719  0  3.692195  0  0  -0.299102  0  3.93865  0  0  -0.305008  0  3.946969  0  0  -0.168808  -0.294991  0  3.932738  0
C  C13  1  0.10150340  0.09213692  0.45764147  1  0  -0.260816  0  3.692284  0  0  -0.299137  0  3.938662  0  0  -0.305034  0  3.946978  0  0  -0.168812  -0.295019  0  3.932745  0
C  C14  1  0.69609540  0.03382683  0.12549013  1  0  0.734813  0  3.779331  0  0  0.683803  0  4.073499  0  0  0.71839  0  4.067226  0  0  0.227545  0.66019  0  4.07698  0
C  C15  1  0.03382713  0.69609652  0.62549114  1  0  0.734806  0  3.779277  0  0  0.683813  0  4.073417  0  0  0.718399  0  4.067148  0  0  0.227531  0.660199  0  4.076899  0
C  C16  1  0.30390351  0.96617159  0.87450952  1  0  0.734738  0  3.77935  0  0  0.683752  0  4.073494  0  0  0.718338  0  4.067225  0  0  0.227538  0.660139  0  4.076975  0
C  C17  1  0.96617178  0.30390190  0.37450851  1  0  0.73487  0  3.779255  0  0  0.683837  0  4.073443  0  0  0.71842  0  4.067176  0  0  0.227534  0.660221  0  4.076924  0
O  O18  1  0.67770164  0.29653129  0.11193613  1  0  -0.639154  0  2.052735  0  0  -0.559786  0  2.323206  0  0  -0.589913  0  2.308508  0  0  -0.30637  -0.538853  0  2.332719  0
O  O19  1  0.29653297  0.67770383  0.61193539  1  0  -0.639138  0  2.052612  0  0  -0.559814  0  2.323126  0  0  -0.589946  0  2.30843  0  0  -0.306362  -0.538881  0  2.33264  0
O  O20  1  0.32230140  0.70346713  0.88806599  1  0  -0.639118  0  2.052695  0  0  -0.559785  0  2.323188  0  0  -0.589908  0  2.308487  0  0  -0.306372  -0.538853  0  2.3327  0
O  O21  1  0.70346799  0.32229665  0.38806494  1  0  -0.639136  0  2.052658  0  0  -0.559799  0  2.323188  0  0  -0.589926  0  2.30849  0  0  -0.306362  -0.538866  0  2.332701  0
O  O22  1  0.54134510  0.88856141  0.20803554  1  0  -0.667009  0  2.049613  0  0  -0.594699  0  2.332543  0  0  -0.623996  0  2.314368  0  0  -0.319687  -0.574276  0  2.344482  0
O  O23  1  0.88856104  0.54134877  0.70803525  1  0  -0.667008  0  2.04965  0  0  -0.594691  0  2.332557  0  0  -0.62399  0  2.314382  0  0  -0.319689  -0.574274  0  2.344505  0
O  O24  1  0.45865380  0.11143906  0.79196490  1  0  -0.666983  0  2.049637  0  0  -0.594676  0  2.33256  0  0  -0.623975  0  2.314387  0  0  -0.319694  -0.574251  0  2.344495  0
O  O25  1  0.11143992  0.45865377  0.29196409  1  0  -0.667041  0  2.04961  0  0  -0.594704  0  2.332528  0  0  -0.624003  0  2.314354  0  0  -0.319681  -0.574285  0  2.344474  0
