# generated using pymatgen
data_BaH5C7NO5
_symmetry_space_group_name_H-M   'P 1'
_cell_length_a   6.74421826
_cell_length_b   7.10560139
_cell_length_c   10.26804814
_cell_angle_alpha   79.35166466
_cell_angle_beta   86.42792543
_cell_angle_gamma   60.83900430
_symmetry_Int_Tables_number   1
_chemical_formula_structural   BaH5C7NO5
_chemical_formula_sum   'Ba2 H10 C14 N2 O10'
_cell_volume   422.07563855
_cell_formula_units_Z   2
loop_
 _symmetry_equiv_pos_site_id
 _symmetry_equiv_pos_as_xyz
  1  'x, y, z'
loop_
 _atom_site_type_symbol
 _atom_site_label
 _atom_site_symmetry_multiplicity
 _atom_site_fract_x
 _atom_site_fract_y
 _atom_site_fract_z
 _atom_site_occupancy
 _atom_site_hle17_bader_spin_density
 _atom_site_hle17_ddec_charge
 _atom_site_hle17_ddec_spin_density
 _atom_site_hle17_ddec_sum_bond_order
 _atom_site_hle17_magmom
 _atom_site_hse06_10hf_bader_spin_density
 _atom_site_hse06_10hf_ddec_charge
 _atom_site_hse06_10hf_ddec_spin_density
 _atom_site_hse06_10hf_ddec_sum_bond_order
 _atom_site_hse06_10hf_magmom
 _atom_site_hse06_bader_spin_density
 _atom_site_hse06_ddec_charge
 _atom_site_hse06_ddec_spin_density
 _atom_site_hse06_ddec_sum_bond_order
 _atom_site_hse06_magmom
 _atom_site_pbe_bader_spin_density
 _atom_site_pbe_cm5_charge
 _atom_site_pbe_ddec_charge
 _atom_site_pbe_ddec_spin_density
 _atom_site_pbe_ddec_sum_bond_order
 _atom_site_pbe_magmom
Ba  Ba0  1  0.32285065  0.37077405  0.38456842  1  0  1.622306  0  1.156903  0  0  1.465713  0  1.559412  0  0  1.508033  0  1.514361  0  0  0.964118  1.435019  0  1.591218  0
Ba  Ba1  1  0.67715451  0.62922549  0.61543358  1  0  1.622264  0  1.156975  0  0  1.465698  0  1.559441  0  0  1.50802  0  1.514383  0  0  0.964122  1.435003  0  1.591249  0
H  H2  1  0.57763428  0.10293227  0.05188848  1  0  0.108271  0  0.963224  0  0  0.116966  0  1.026604  0  0  0.120451  0  1.024952  0  0  0.112933  0.114331  0  1.02809  0
H  H3  1  0.42237756  0.89706864  0.94811705  1  0  0.108222  0  0.963196  0  0  0.116887  0  1.02662  0  0  0.120375  0  1.024971  0  0  0.112924  0.114254  0  1.028105  0
H  H4  1  0.72393693  0.03919320  0.82362722  1  0  0.11468  0  0.93643  0  0  0.125018  0  0.995677  0  0  0.128674  0  0.992758  0  0  0.123531  0.122255  0  0.997927  0
H  H5  1  0.27606691  0.96082081  0.17637719  1  0  0.114689  0  0.936453  0  0  0.125003  0  0.995701  0  0  0.128659  0  0.992782  0  0  0.123541  0.122239  0  0.99795  0
H  H6  1  0.32601597  0.47595182  0.01206129  1  0  0.078388  0  0.938497  0  0  0.084738  0  1.00996  0  0  0.088433  0  1.005835  0  0  0.120939  0.082009  0  1.012963  0
H  H7  1  0.67397330  0.52405294  0.98793679  1  0  0.078405  0  0.938379  0  0  0.08477  0  1.009819  0  0  0.088458  0  1.005714  0  0  0.120947  0.082042  0  1.012816  0
H  H8  1  0.20127484  0.90811767  0.40127205  1  0  0.430064  0  0.864239  0  0  0.40023  0  0.92638  0  0  0.410863  0  0.910727  0  0  0.30817  0.392582  0  0.937659  0
H  H9  1  0.79873209  0.09185716  0.59873738  1  0  0.430012  0  0.864272  0  0  0.400171  0  0.926432  0  0  0.410809  0  0.910772  0  0  0.30812  0.392519  0  0.937721  0
H  H10  1  0.16436809  0.77762159  0.53351376  1  0  0.413758  0  0.899364  0  0  0.381704  0  0.965753  0  0  0.393976  0  0.947874  0  0  0.298716  0.372915  0  0.978553  0
H  H11  1  0.83566862  0.22236913  0.46646377  1  0  0.41353  0  0.899566  0  0  0.381425  0  0.966081  0  0  0.393716  0  0.948178  0  0  0.29849  0.372626  0  0.978892  0
C  C12  1  0.86428168  0.81159184  0.14848030  1  0  0.103019  0  3.725547  0  0  0.106946  0  3.969408  0  0  0.108449  0  3.987771  0  0  0.119964  0.105832  0  3.957068  0
C  C13  1  0.13572343  0.18840805  0.85151484  1  0  0.102993  0  3.725598  0  0  0.107005  0  3.969306  0  0  0.10851  0  3.987665  0  0  0.119999  0.105888  0  3.956977  0
C  C14  1  0.73978637  0.96309950  0.03758970  1  0  -0.115199  0  3.723365  0  0  -0.134989  0  3.973409  0  0  -0.140401  0  3.994397  0  0  -0.073377  -0.131482  0  3.959549  0
C  C15  1  0.26021258  0.03690646  0.96241475  1  0  -0.115172  0  3.723138  0  0  -0.13498  0  3.973146  0  0  -0.140401  0  3.994142  0  0  -0.073406  -0.131473  0  3.959286  0
C  C16  1  0.82318734  0.92882966  0.91189032  1  0  -0.011183  0  3.678817  0  0  -0.041825  0  3.932968  0  0  -0.037589  0  3.948916  0  0  -0.052895  -0.044345  0  3.922222  0
C  C17  1  0.17681896  0.07117935  0.08811648  1  0  -0.011133  0  3.678733  0  0  -0.041674  0  3.932844  0  0  -0.037435  0  3.948793  0  0  -0.052856  -0.044193  0  3.922094  0
C  C18  1  0.03576464  0.74882531  0.90064146  1  0  -0.112241  0  3.730887  0  0  -0.087942  0  3.971243  0  0  -0.097897  0  3.993327  0  0  -0.005701  -0.081961  0  3.956633  0
C  C19  1  0.96423292  0.25117765  0.09935847  1  0  -0.112222  0  3.730889  0  0  -0.088063  0  3.971407  0  0  -0.09802  0  3.99349  0  0  -0.005696  -0.082078  0  3.95679  0
C  C20  1  0.15609165  0.61331920  0.01777337  1  0  0.127807  0  3.705231  0  0  0.088784  0  3.966825  0  0  0.095475  0  3.983213  0  0  0.060669  0.08464  0  3.955735  0
C  C21  1  0.84391185  0.38668381  0.98222442  1  0  0.127765  0  3.704932  0  0  0.088774  0  3.966564  0  0  0.09546  0  3.982953  0  0  0.060679  0.084633  0  3.955472  0
C  C22  1  0.76522541  0.83368390  0.28517065  1  0  0.659581  0  3.911372  0  0  0.609217  0  4.206662  0  0  0.643549  0  4.196374  0  0  0.232482  0.585958  0  4.212807  0
C  C23  1  0.23477757  0.16631407  0.71483061  1  0  0.659651  0  3.911325  0  0  0.609287  0  4.20657  0  0  0.64362  0  4.196274  0  0  0.232546  0.586028  0  4.212725  0
C  C24  1  0.13645533  0.70234608  0.76757260  1  0  0.668582  0  3.918267  0  0  0.611755  0  4.224003  0  0  0.645677  0  4.216777  0  0  0.225827  0.588973  0  4.227828  0
C  C25  1  0.86353498  0.29765072  0.23242238  1  0  0.668836  0  3.917942  0  0  0.612023  0  4.223692  0  0  0.645948  0  4.216458  0  0  0.225972  0.589236  0  4.227512  0
N  N26  1  0.07216383  0.64000440  0.13868022  1  0  -0.38517  0  3.179673  0  0  -0.334457  0  3.442579  0  0  -0.348236  0  3.46069  0  0  -0.356331  -0.325083  0  3.43034  0
N  N27  1  0.92784302  0.35998905  0.86131360  1  0  -0.385152  0  3.179605  0  0  -0.334469  0  3.442468  0  0  -0.348246  0  3.460577  0  0  -0.356371  -0.3251  0  3.430236  0
O  O28  1  0.88072277  0.68441385  0.38183625  1  0  -0.72622  0  2.040934  0  0  -0.66081  0  2.292982  0  0  -0.688025  0  2.282749  0  0  -0.411066  -0.64167  0  2.299421  0
O  O29  1  0.11927813  0.31557950  0.61816069  1  0  -0.726248  0  2.040884  0  0  -0.660831  0  2.292898  0  0  -0.688046  0  2.282661  0  0  -0.411099  -0.641692  0  2.299341  0
O  O30  1  0.57238055  0.99705541  0.29440980  1  0  -0.704182  0  1.97748  0  0  -0.64662  0  2.225085  0  0  -0.672408  0  2.213987  0  0  -0.375156  -0.628385  0  2.232183  0
O  O31  1  0.42761646  0.00294262  0.70559165  1  0  -0.70423  0  1.977472  0  0  -0.646692  0  2.225086  0  0  -0.672482  0  2.21399  0  0  -0.375203  -0.628459  0  2.232186  0
O  O32  1  0.34664562  0.57373352  0.76421177  1  0  -0.666391  0  1.911635  0  0  -0.610202  0  2.147655  0  0  -0.636191  0  2.13981  0  0  -0.354155  -0.591611  0  2.152415  0
O  O33  1  0.65334745  0.42626954  0.23578733  1  0  -0.666491  0  1.911639  0  0  -0.610269  0  2.147642  0  0  -0.636257  0  2.139798  0  0  -0.354168  -0.591677  0  2.152401  0
O  O34  1  0.99921738  0.79918667  0.66551905  1  0  -0.696521  0  1.988822  0  0  -0.62706  0  2.216234  0  0  -0.653818  0  2.205087  0  0  -0.311592  -0.608074  0  2.223124  0
O  O35  1  0.00077701  0.20080180  0.33447960  1  0  -0.696628  0  1.988696  0  0  -0.627135  0  2.216127  0  0  -0.653903  0  2.204977  0  0  -0.31169  -0.60817  0  2.223078  0
O  O36  1  0.27573381  0.76429620  0.46070710  1  0  -0.909283  0  1.806132  0  0  -0.84713  0  1.988025  0  0  -0.868975  0  1.955416  0  0  -0.627084  -0.831861  0  2.011402  0
O  O37  1  0.72421654  0.23573251  0.53930629  1  0  -0.909156  0  1.806023  0  0  -0.846965  0  1.987886  0  0  -0.868825  0  1.955266  0  0  -0.626847  -0.831669  0  2.011227  0
