# generated using pymatgen
data_Cu2H4CO5
_symmetry_space_group_name_H-M   'P 1'
_cell_length_a   5.70917722
_cell_length_b   6.07691173
_cell_length_c   6.89386835
_cell_angle_alpha   89.99677421
_cell_angle_beta   110.37369536
_cell_angle_gamma   89.99945324
_symmetry_Int_Tables_number   1
_chemical_formula_structural   Cu2H4CO5
_chemical_formula_sum   'Cu4 H8 C2 O10'
_cell_volume   224.21455795
_cell_formula_units_Z   2
loop_
 _symmetry_equiv_pos_site_id
 _symmetry_equiv_pos_as_xyz
  1  'x, y, z'
loop_
 _atom_site_type_symbol
 _atom_site_label
 _atom_site_symmetry_multiplicity
 _atom_site_fract_x
 _atom_site_fract_y
 _atom_site_fract_z
 _atom_site_occupancy
 _atom_site_pbe_cm5_charge
 _atom_site_pbe_ddec_charge
 _atom_site_pbe_ddec_spin_density
 _atom_site_pbe_ddec_sum_bond_order
 _atom_site_pbe_magmom
Cu  Cu0  1  0.49898023  0.31295752  0.00566703  1  0.660324  1.002224  -0.636756  2.248848  -0.534
Cu  Cu1  1  0.50100900  0.81294487  0.99431736  1  0.660348  1.00228  0.636757  2.248715  0.534
Cu  Cu2  1  0.99660099  0.56574827  0.00213234  1  0.668537  1.044649  0.614067  2.071413  0.518
Cu  Cu3  1  0.00340589  0.06573687  0.99789530  1  0.668571  1.044799  -0.614084  2.071399  -0.518
H  H4  1  0.66098299  0.29744395  0.73138781  1  0.280608  0.369594  2e-05  0.979255  0.001
H  H5  1  0.33904362  0.79739332  0.26863158  1  0.280479  0.36956  -2.1e-05  0.979333  -0.001
H  H6  1  0.37371414  0.55419174  0.70135633  1  0.290573  0.381159  -0.000411  0.933886  0.0
H  H7  1  0.62629846  0.05415171  0.29863416  1  0.290639  0.381207  0.000411  0.933874  0.0
H  H8  1  0.29867803  0.30448162  0.27887246  1  0.274524  0.360619  -0.000435  1.003802  0.0
H  H9  1  0.70134170  0.80447466  0.72112594  1  0.274533  0.360518  0.000434  1.003902  0.0
H  H10  1  0.05273577  0.10543328  0.41333258  1  0.102967  0.020213  0.00064  1.02849  0.001
H  H11  1  0.94725666  0.60542606  0.58665596  1  0.102947  0.020279  -0.00064  1.028389  -0.001
C  C12  1  0.22208177  0.13958201  0.55058488  1  0.138296  0.516221  0.000638  4.147637  0.0
C  C13  1  0.77789386  0.63958669  0.44941941  1  0.13827  0.515997  -0.000638  4.147955  0.0
O  O14  1  0.77026369  0.31359000  0.88072764  1  -0.581858  -0.858825  -0.053778  2.40099  -0.078
O  O15  1  0.22974865  0.81357454  0.11927567  1  -0.581701  -0.858834  0.053784  2.401265  0.078
O  O16  1  0.22458239  0.07541230  0.72464345  1  -0.336446  -0.60862  0.00206  2.40213  0.002
O  O17  1  0.77540524  0.57541819  0.27537443  1  -0.336434  -0.608624  -0.002063  2.40222  -0.002
O  O18  1  0.33823665  0.56333225  0.83017919  1  -0.595367  -0.862747  -0.004291  2.281517  -0.005
O  O19  1  0.66174340  0.06331819  0.16979382  1  -0.595516  -0.862868  0.004296  2.281582  0.005
O  O20  1  0.22494459  0.31824726  0.12062738  1  -0.581657  -0.858456  -0.049071  2.424121  -0.071
O  O21  1  0.77505840  0.81827400  0.87937622  1  -0.581686  -0.858418  0.049083  2.424284  0.071
O  O22  1  0.39851640  0.24544040  0.51487041  1  -0.320496  -0.506097  0.002624  2.230018  0.003
O  O23  1  0.60146410  0.74543288  0.48511665  1  -0.320453  -0.505831  -0.002624  2.230361  -0.003
