# generated using pymatgen
data_AlH3C8BrClO5
_symmetry_space_group_name_H-M   'P 1'
_cell_length_a   6.61345901
_cell_length_b   8.92069910
_cell_length_c   11.05844965
_cell_angle_alpha   83.22316352
_cell_angle_beta   73.65112827
_cell_angle_gamma   75.07237746
_symmetry_Int_Tables_number   1
_chemical_formula_structural   AlH3C8BrClO5
_chemical_formula_sum   'Al2 H6 C16 Br2 Cl2 O10'
_cell_volume   604.17599451
_cell_formula_units_Z   2
loop_
 _symmetry_equiv_pos_site_id
 _symmetry_equiv_pos_as_xyz
  1  'x, y, z'
loop_
 _atom_site_type_symbol
 _atom_site_label
 _atom_site_symmetry_multiplicity
 _atom_site_fract_x
 _atom_site_fract_y
 _atom_site_fract_z
 _atom_site_occupancy
 _atom_site_pbe_bader_charge
 _atom_site_pbe_bader_spin_density
 _atom_site_pbe_cm5_charge
 _atom_site_pbe_ddec_charge
 _atom_site_pbe_ddec_spin_density
 _atom_site_pbe_ddec_sum_bond_order
 _atom_site_pbe_magmom
Al  Al0  1  0.48982067  0.50659526  0.50119734  1  2.501477  0  0.391607  1.649684  0  2.556064  0
Al  Al1  1  0.99074600  0.50793734  0.49769496  1  2.501002  0  0.390904  1.64673  0  2.559653  0
H  H2  1  0.76328901  0.62312101  0.35674081  1  0.600259  0  0.335923  0.414603  0  0.893384  0
H  H3  1  0.19537105  0.41352830  0.64925353  1  0.64217  0  0.349229  0.42916  0  0.860846  0
H  H4  1  0.22676959  0.27027018  0.23882319  1  0.112312  0  0.105236  0.116663  0  1.02324  0
H  H5  1  0.15619909  0.07654892  0.12484334  1  0.065478  0  0.094781  0.089595  0  1.020277  0
H  H6  1  0.47123295  0.27228234  0.76918363  1  0.051164  0  0.103908  0.110732  0  1.025677  0
H  H7  1  0.28045247  0.07699758  0.88969078  1  0.069687  0  0.09608  0.094232  0  1.015981  0
C  C8  1  0.36029992  0.50051953  0.27423617  1  1.628203  0  0.270864  0.657506  0  4.103301  0
C  C9  1  0.13061472  0.78460059  0.50913054  1  1.664098  0  0.259478  0.631658  0  4.150814  0
C  C10  1  0.62497865  0.51238888  0.72584332  1  1.561475  0  0.272524  0.661621  0  4.096625  0
C  C11  1  0.85294015  0.22977517  0.48882434  1  1.637172  0  0.261703  0.63328  0  4.134664  0
C  C12  1  0.91440383  0.05703361  0.47474556  1  0.08894  0  0.010009  -0.039966  0  3.950519  0
C  C13  1  0.06823590  0.95736640  0.52298834  1  0.167716  0  0.010213  -0.039051  0  3.954004  0
C  C14  1  0.42979376  0.50286925  0.13278390  1  0.080321  0  -0.009225  -0.111538  0  3.932159  0
C  C15  1  0.38598516  0.38905443  0.06939654  1  0.065784  0  0.003097  0.072263  0  3.950088  0
C  C16  1  0.53418154  0.61480325  0.06534587  1  -0.161175  0  -0.017415  0.035671  0  3.955658  0
C  C17  1  0.27903049  0.27281485  0.13615927  1  -0.091298  0  -0.089175  -0.125961  0  3.938265  0
C  C18  1  0.23959523  0.16426175  0.07229031  1  -0.046225  0  -0.090891  -0.072687  0  4.026501  0
C  C19  1  0.56047752  0.50866386  0.86740737  1  0.096519  0  -0.010591  -0.115706  0  3.929489  0
C  C20  1  0.59860207  0.61875694  0.93140097  1  -0.02474  0  -0.018167  0.035574  0  3.968895  0
C  C21  1  0.45419947  0.39115628  0.93420819  1  -0.009595  0  0.001223  0.072789  0  3.951827  0
C  C22  1  0.41519434  0.27501150  0.87164086  1  -0.046499  0  -0.093397  -0.137161  0  3.958285  0
C  C23  1  0.30899094  0.16500628  0.93920751  1  0.031494  0  -0.091587  -0.076048  0  4.032925  0
Br  Br24  1  0.72594882  0.77946281  0.83939022  1  -0.014655  0  0.06017  -0.011317  0  1.555163  0
Br  Br25  1  0.57871172  0.77078387  0.15200152  1  -0.026931  0  0.066012  -0.016371  0  1.55733  0
Cl  Cl26  1  0.77208810  0.99759220  0.38874988  1  -0.145223  0  0.035458  0.012432  0  1.586878  0
Cl  Cl27  1  0.20948654  0.01936150  0.60829395  1  -0.14555  0  0.032346  0.006703  0  1.586336  0
O  O28  1  0.50919570  0.46895681  0.33104573  1  -1.250424  0  -0.228732  -0.579669  0  2.35287  0
O  O29  1  0.97599977  0.71934161  0.52346153  1  -1.241189  0  -0.231377  -0.586254  0  2.433449  0
O  O30  1  0.82602247  0.48292032  0.67010964  1  -1.252606  0  -0.230196  -0.590338  0  2.354528  0
O  O31  1  0.65174751  0.29314224  0.52089979  1  -1.251551  0  -0.231779  -0.581047  0  2.360416  0
O  O32  1  0.47167183  0.53894678  0.67249446  1  -1.258634  0  -0.227695  -0.578365  0  2.339364  0
O  O33  1  0.00814300  0.29634462  0.46701592  1  -1.243191  0  -0.224872  -0.569046  0  2.390212  0
O  O34  1  0.15778741  0.53027923  0.32635709  1  -1.253546  0  -0.22567  -0.578196  0  2.337215  0
O  O35  1  0.33135699  0.72036224  0.48477730  1  -1.251043  0  -0.233785  -0.591971  0  2.399459  0
O  O36  1  0.74297026  0.57450018  0.44128155  1  -1.406207  0  -0.449159  -0.986644  0  2.223098  0
O  O37  1  0.23509080  0.43912994  0.55919299  1  -1.444989  0  -0.447051  -0.983562  0  2.191198  0
