# generated using pymatgen
data_Mn2H10C3(SeN)2
_symmetry_space_group_name_H-M   'P 1'
_cell_length_a   6.49825161
_cell_length_b   6.61351830
_cell_length_c   10.69733427
_cell_angle_alpha   107.98351395
_cell_angle_beta   90.00047385
_cell_angle_gamma   89.99946739
_symmetry_Int_Tables_number   1
_chemical_formula_structural   Mn2H10C3(SeN)2
_chemical_formula_sum   'Mn4 H20 C6 Se4 N4'
_cell_volume   437.27188831
_cell_formula_units_Z   2
loop_
 _symmetry_equiv_pos_site_id
 _symmetry_equiv_pos_as_xyz
  1  'x, y, z'
loop_
 _atom_site_type_symbol
 _atom_site_label
 _atom_site_symmetry_multiplicity
 _atom_site_fract_x
 _atom_site_fract_y
 _atom_site_fract_z
 _atom_site_occupancy
 _atom_site_pbe_cm5_charge
 _atom_site_pbe_ddec_charge
 _atom_site_pbe_ddec_spin_density
 _atom_site_pbe_ddec_sum_bond_order
 _atom_site_pbe_magmom
Mn  Mn0  1  0.00108769  0.36274990  0.41607318  1  0.32013  0.604775  4.654208  2.772454  4.338
Mn  Mn1  1  0.50107747  0.63727070  0.58393284  1  0.320108  0.604743  4.654301  2.772389  4.338
Mn  Mn2  1  0.50148835  0.05303994  0.41602700  1  0.320028  0.603646  4.653113  2.773913  4.338
Mn  Mn3  1  0.00147857  0.94695840  0.58397471  1  0.320015  0.603651  4.653066  2.773982  4.338
H  H4  1  0.20590864  0.84916547  0.25881438  1  0.261532  0.259868  0.005041  1.013719  0.004
H  H5  1  0.70590363  0.15083928  0.74118864  1  0.261523  0.259848  0.005042  1.013712  0.004
H  H6  1  0.70586517  0.40967394  0.25871074  1  0.261542  0.259757  0.005053  1.01341  0.004
H  H7  1  0.20585939  0.59032133  0.74128202  1  0.261547  0.259825  0.005053  1.013528  0.004
H  H8  1  0.38179218  0.66833067  0.25863830  1  0.262006  0.258955  0.005274  1.011179  0.004
H  H9  1  0.88179164  0.33166957  0.74136469  1  0.262012  0.258981  0.005274  1.011129  0.004
H  H10  1  0.88186244  0.59020273  0.25853962  1  0.262382  0.259641  0.005246  1.010285  0.004
H  H11  1  0.38186296  0.40979437  0.74145623  1  0.26236  0.25965  0.005245  1.010241  0.004
H  H12  1  0.41886120  0.99652167  0.12314069  1  0.094893  0.067947  0.00121  0.993752  0.001
H  H13  1  0.91885794  0.00346560  0.87685531  1  0.094912  0.067917  0.001211  0.993802  0.001
H  H14  1  0.91897824  0.12667345  0.12318671  1  0.094856  0.067956  0.001221  0.994158  0.001
H  H15  1  0.41895173  0.87333130  0.87681453  1  0.09488  0.068028  0.00122  0.99406  0.001
H  H16  1  0.60735125  0.80356581  0.12098452  1  0.092525  0.062068  0.001183  1.005532  0.001
H  H17  1  0.10736031  0.19641427  0.87901044  1  0.092468  0.062003  0.001183  1.005456  0.001
H  H18  1  0.10736672  0.31749915  0.12095351  1  0.092548  0.061937  0.001176  1.005325  0.001
H  H19  1  0.60734946  0.68250634  0.87905010  1  0.092557  0.061999  0.001176  1.005341  0.001
H  H20  1  0.17352183  0.71055092  0.00002190  1  0.088314  0.087408  0.000436  0.991347  0.0
H  H21  1  0.67353764  0.28945090  0.99998039  1  0.088361  0.087497  0.000436  0.991347  0.0
H  H22  1  0.35882028  0.51337417  0.00008179  1  0.086558  0.08118  0.000428  1.006948  0.0
H  H23  1  0.85883426  0.48661833  0.99991399  1  0.086536  0.081178  0.000428  1.007024  0.0
C  C24  1  0.43988917  0.83090015  0.12279602  1  -0.074069  0.031887  0.007836  3.90997  0.005
C  C25  1  0.93988744  0.16909648  0.87720469  1  -0.074001  0.032158  0.007836  3.90986  0.005
C  C26  1  0.93992156  0.29191351  0.12278368  1  -0.07393  0.032097  0.007827  3.909712  0.005
C  C27  1  0.43990121  0.70808152  0.87721765  1  -0.073983  0.031943  0.007828  3.909632  0.005
C  C28  1  0.34039763  0.67919277  0.00004018  1  -0.170856  -0.212022  0.006452  3.945058  0.006
C  C29  1  0.84041315  0.32080619  0.99996237  1  -0.17093  -0.212272  0.006452  3.945456  0.006
Se  Se30  1  0.88153515  0.98016255  0.36778437  1  -0.325126  -0.738361  0.271929  2.640478  0.092
Se  Se31  1  0.38152237  0.01985995  0.63222199  1  -0.325134  -0.738334  0.271915  2.64046  0.092
Se  Se32  1  0.38120025  0.38735923  0.36800500  1  -0.325315  -0.738579  0.272157  2.640087  0.092
Se  Se33  1  0.88119401  0.61264419  0.63199860  1  -0.325346  -0.738616  0.27216  2.640153  0.092
N  N34  1  0.36195993  0.81785048  0.24916464  1  -0.633907  -0.524524  0.050069  3.392246  0.027
N  N35  1  0.86195630  0.18214676  0.75083207  1  -0.633919  -0.524615  0.050073  3.392217  0.027
N  N36  1  0.86193159  0.43126214  0.24908079  1  -0.634045  -0.52555  0.050116  3.392997  0.027
N  N37  1  0.36191538  0.56874469  0.75091217  1  -0.634032  -0.525667  0.05012  3.39314  0.027
