# generated using pymatgen
data_SnH2(CO2)2
_symmetry_space_group_name_H-M   'P 1'
_cell_length_a   6.35215594
_cell_length_b   8.46195328
_cell_length_c   8.85426366
_cell_angle_alpha   103.90005750
_cell_angle_beta   96.01479314
_cell_angle_gamma   90.69529130
_symmetry_Int_Tables_number   1
_chemical_formula_structural   SnH2(CO2)2
_chemical_formula_sum   'Sn4 H8 C8 O16'
_cell_volume   459.10764333
_cell_formula_units_Z   4
loop_
 _symmetry_equiv_pos_site_id
 _symmetry_equiv_pos_as_xyz
  1  'x, y, z'
loop_
 _atom_site_type_symbol
 _atom_site_label
 _atom_site_symmetry_multiplicity
 _atom_site_fract_x
 _atom_site_fract_y
 _atom_site_fract_z
 _atom_site_occupancy
 _atom_site_pbe_bader_spin_density
 _atom_site_pbe_cm5_charge
 _atom_site_pbe_ddec_charge
 _atom_site_pbe_ddec_spin_density
 _atom_site_pbe_ddec_sum_bond_order
 _atom_site_pbe_magmom
Sn  Sn0  1  0.47342699  0.71846731  0.37791419  1  0  0.532789  0.855777  0  2.374059  0
Sn  Sn1  1  0.52659208  0.28156159  0.62209405  1  0  0.532766  0.855592  0  2.374413  0
Sn  Sn2  1  0.97289844  0.21985852  0.36918484  1  0  0.532748  0.851793  0  2.370423  0
Sn  Sn3  1  0.02711147  0.78014354  0.63083008  1  0  0.532721  0.851687  0  2.370538  0
H  H4  1  0.49929166  0.92739233  0.09430994  1  0  0.120934  0.039293  0  1.003586  0
H  H5  1  0.50066877  0.07260240  0.90568836  1  0  0.120942  0.039293  0  1.003684  0
H  H6  1  0.00871661  0.85818006  0.09011159  1  0  0.120983  0.045953  0  1.012718  0
H  H7  1  0.99122744  0.14180245  0.90989511  1  0  0.120922  0.045767  0  1.012703  0
H  H8  1  0.35773581  0.36272545  0.08541450  1  0  0.12091  0.043482  0  1.011946  0
H  H9  1  0.64220377  0.63726441  0.91457210  1  0  0.120826  0.043361  0  1.012027  0
H  H10  1  0.84596639  0.43769295  0.08336279  1  0  0.119263  0.039991  0  1.004563  0
H  H11  1  0.15406167  0.56229208  0.91664726  1  0  0.119236  0.040027  0  1.004453  0
C  C12  1  0.61290908  0.99409211  0.19314820  1  0  0.162243  0.472248  0  4.152613  0
C  C13  1  0.38708631  0.00590633  0.80683884  1  0  0.162269  0.472208  0  4.15293  0
C  C14  1  0.11576846  0.84891969  0.19419037  1  0  0.163097  0.476326  0  4.140652  0
C  C15  1  0.88422828  0.15107513  0.80578237  1  0  0.163067  0.476486  0  4.140153  0
C  C16  1  0.28062914  0.34767528  0.18781774  1  0  0.161909  0.473798  0  4.137459  0
C  C17  1  0.71934325  0.65233649  0.81219780  1  0  0.161948  0.473755  0  4.137581  0
C  C18  1  0.77632793  0.50171978  0.18964847  1  0  0.163897  0.481871  0  4.139851  0
C  C19  1  0.22368790  0.49827376  0.81036717  1  0  0.164006  0.482068  0  4.139932  0
O  O20  1  0.62291551  0.95658384  0.32318301  1  0  -0.271086  -0.495612  0  2.422079  0
O  O21  1  0.37711434  0.04340733  0.67680374  1  0  -0.271139  -0.495583  0  2.422233  0
O  O22  1  0.22893676  0.72254977  0.17693721  1  0  -0.27743  -0.45103  0  2.322024  0
O  O23  1  0.77106529  0.27745600  0.82304411  1  0  -0.277386  -0.450962  0  2.321879  0
O  O24  1  0.32039926  0.44786695  0.31900251  1  0  -0.273899  -0.502401  0  2.422357  0
O  O25  1  0.67958546  0.55217167  0.68100320  1  0  -0.273824  -0.502193  0  2.422521  0
O  O26  1  0.65171335  0.61565063  0.17250052  1  0  -0.275191  -0.445269  0  2.322009  0
O  O27  1  0.34830393  0.38434048  0.82751127  1  0  -0.27525  -0.445401  0  2.321982  0
O  O28  1  0.72809879  0.10745029  0.16642974  1  0  -0.276569  -0.444519  0  2.29768  0
O  O29  1  0.27192875  0.89252626  0.83354895  1  0  -0.276505  -0.444402  0  2.297788  0
O  O30  1  0.12384545  0.95802730  0.32012135  1  0  -0.274336  -0.497335  0  2.41167  0
O  O31  1  0.87621065  0.04198465  0.67984842  1  0  -0.274191  -0.497254  0  2.41144  0
O  O32  1  0.14991353  0.22519176  0.16307295  1  0  -0.274175  -0.439031  0  2.307593  0
O  O33  1  0.85007879  0.77480538  0.83695987  1  0  -0.274221  -0.439043  0  2.307533  0
O  O34  1  0.81729688  0.46042073  0.31689098  1  0  -0.276119  -0.505301  0  2.414475  0
O  O35  1  0.18270329  0.53957645  0.68312435  1  0  -0.276156  -0.505438  0  2.41493  0
