# generated using pymatgen
data_ZnHC5Br3NO4
_symmetry_space_group_name_H-M   'P 1'
_cell_length_a   7.28634757
_cell_length_b   8.91113337
_cell_length_c   11.53033475
_cell_angle_alpha   92.53520425
_cell_angle_beta   104.43085656
_cell_angle_gamma   76.21538457
_symmetry_Int_Tables_number   1
_chemical_formula_structural   ZnHC5Br3NO4
_chemical_formula_sum   'Zn2 H2 C10 Br6 N2 O8'
_cell_volume   704.06559902
_cell_formula_units_Z   2
loop_
 _symmetry_equiv_pos_site_id
 _symmetry_equiv_pos_as_xyz
  1  'x, y, z'
loop_
 _atom_site_type_symbol
 _atom_site_label
 _atom_site_symmetry_multiplicity
 _atom_site_fract_x
 _atom_site_fract_y
 _atom_site_fract_z
 _atom_site_occupancy
 _atom_site_pbe_bader_charge
 _atom_site_pbe_bader_spin_density
 _atom_site_pbe_cm5_charge
 _atom_site_pbe_ddec_charge
 _atom_site_pbe_ddec_spin_density
 _atom_site_pbe_ddec_sum_bond_order
 _atom_site_pbe_magmom
Zn  Zn0  1  0.28906762  0.52012289  0.44347371  1  1.300606  0  0.688545  0.857521  0  2.326395  0
Zn  Zn1  1  0.70461103  0.46483823  0.55599533  1  1.29606  0  0.686658  0.854234  0  2.34406  0
H  H2  1  0.10818991  0.46574712  0.61652359  1  0.501887  0  0.298698  0.25038  0  1.017363  0
H  H3  1  0.88645553  0.51192454  0.38174774  1  0.504586  0  0.313388  0.269473  0  0.964986  0
C  C4  1  0.53696614  0.20068740  0.48625187  1  1.662513  0  0.211657  0.610362  0  4.203397  0
C  C5  1  0.43767897  0.95611386  0.51979803  1  0.048906  0  -0.026417  -0.05655  0  3.860669  0
C  C6  1  0.44981633  0.78558190  0.51265607  1  1.643812  0  0.213529  0.61698  0  4.183346  0
C  C7  1  0.49963709  0.50644241  0.26896622  1  1.630047  0  0.210502  0.617206  0  4.208322  0
C  C8  1  0.49802597  0.47142922  0.72986427  1  1.601457  0  0.210497  0.618804  0  4.161227  0
C  C9  1  0.54168990  0.50852943  0.14781453  1  -0.031187  0  -0.033632  -0.077853  0  3.889237  0
C  C10  1  0.45809400  0.45945451  0.85001158  1  -0.009545  0  -0.030195  -0.087104  0  3.831177  0
C  C11  1  0.53359866  0.39611962  0.06689326  1  0.020462  0  -0.043719  0.00488  0  4.060725  0
C  C12  1  0.58629782  0.39776186  0.95226441  1  -0.001234  0  -0.026002  0.044356  0  4.010154  0
C  C13  1  0.55298440  0.02930225  0.48066444  1  -0.11833  0  -0.023401  -0.046913  0  3.865348  0
Br  Br14  1  0.85315361  0.30240458  0.96363545  1  0.025217  0  0.048775  -0.004375  0  1.49412  0
Br  Br15  1  0.46169616  0.21385631  0.10223005  1  -0.016714  0  0.040921  -0.010253  0  1.446012  0
Br  Br16  1  0.19265821  0.53733148  0.85537427  1  -0.007034  0  0.062798  0.013107  0  1.516561  0
Br  Br17  1  0.62339176  0.68701649  0.11814026  1  -0.006688  0  0.053932  0.003495  0  1.455175  0
Br  Br18  1  0.75500523  0.92617120  0.40859499  1  0.017135  0  0.055186  0.010318  0  1.551063  0
Br  Br19  1  0.24019761  0.06540490  0.59381728  1  0.002732  0  0.050968  0.012466  0  1.461096  0
N  N20  1  0.98170555  0.47244548  0.54652930  1  -0.429165  0  -0.244283  -0.117504  0  3.209067  0
N  N21  1  0.01289212  0.50643139  0.45125934  1  -0.420379  0  -0.241149  -0.106383  0  3.169174  0
O  O22  1  0.37445175  0.28584027  0.43358190  1  -1.153489  0  -0.309657  -0.536206  0  2.372535  0
O  O23  1  0.61894474  0.69853406  0.54641094  1  -1.153642  0  -0.311382  -0.538168  0  2.390471  0
O  O24  1  0.68918582  0.24342550  0.54211525  1  -1.14827  0  -0.313069  -0.523445  0  2.340541  0
O  O25  1  0.29083095  0.74360267  0.47395677  1  -1.14098  0  -0.313434  -0.525836  0  2.331487  0
O  O26  1  0.32314519  0.53688512  0.27365349  1  -1.127054  0  -0.301907  -0.494102  0  2.248263  0
O  O27  1  0.67095761  0.47155000  0.72721462  1  -1.127214  0  -0.306176  -0.499975  0  2.306934  0
O  O28  1  0.64804123  0.47561738  0.35737561  1  -1.173263  0  -0.306972  -0.571195  0  2.350343  0
O  O29  1  0.35545355  0.48122727  0.63802752  1  -1.191232  0  -0.314662  -0.58772  0  2.412998  0
