# generated using pymatgen
data_CoH8C8(O2F)4
_symmetry_space_group_name_H-M   'P 1'
_cell_length_a   5.11063620
_cell_length_b   6.49233384
_cell_length_c   9.22708892
_cell_angle_alpha   73.25595085
_cell_angle_beta   88.73001540
_cell_angle_gamma   73.93669778
_symmetry_Int_Tables_number   1
_chemical_formula_structural   CoH8C8(O2F)4
_chemical_formula_sum   'Co1 H8 C8 O8 F4'
_cell_volume   281.17580405
_cell_formula_units_Z   1
loop_
 _symmetry_equiv_pos_site_id
 _symmetry_equiv_pos_as_xyz
  1  'x, y, z'
loop_
 _atom_site_type_symbol
 _atom_site_label
 _atom_site_symmetry_multiplicity
 _atom_site_fract_x
 _atom_site_fract_y
 _atom_site_fract_z
 _atom_site_occupancy
 _atom_site_pbe_cm5_charge
 _atom_site_pbe_ddec_charge
 _atom_site_pbe_ddec_spin_density
 _atom_site_pbe_ddec_sum_bond_order
 _atom_site_pbe_magmom
Co  Co0  1  0.99999028  0.00000602  0.99999622  1  0.634169  1.089811  2.827426  2.175786  2.637
H  H1  1  0.32161512  0.65563011  0.92710401  1  0.300271  0.387572  0.000381  0.940019  0.001
H  H2  1  0.67834887  0.34438422  0.07287858  1  0.300305  0.387609  0.000381  0.940036  0.001
H  H3  1  0.18633425  0.59070334  0.08450872  1  0.285973  0.368528  -1e-05  0.989964  0.0
H  H4  1  0.81365582  0.40931538  0.91548673  1  0.286  0.368515  -1e-05  0.989952  0.0
H  H5  1  0.84792731  0.82168296  0.79698855  1  0.301277  0.402203  0.000919  0.921807  0.002
H  H6  1  0.15205010  0.17832608  0.20300687  1  0.301234  0.402182  0.000919  0.921883  0.002
H  H7  1  0.58317745  0.00591545  0.82746954  1  0.297113  0.401008  5.9e-05  0.92832  0.001
H  H8  1  0.41680641  0.99409178  0.17253266  1  0.297114  0.401067  5.8e-05  0.928233  0.001
C  C9  1  0.18382006  0.36532953  0.76264011  1  0.226731  0.631442  -0.001673  4.148877  -0.001
C  C10  1  0.81615652  0.63470118  0.23736608  1  0.226783  0.631574  -0.001674  4.148245  -0.001
C  C11  1  0.34275404  0.43638742  0.62649932  1  -0.024773  -0.213486  0.00231  4.004785  0.003
C  C12  1  0.65727668  0.56358876  0.37350643  1  -0.024695  -0.213556  0.002309  4.00532  0.003
C  C13  1  0.46155970  0.61095115  0.60823657  1  0.097024  0.169927  0.000577  4.045381  0.001
C  C14  1  0.53849881  0.38904266  0.39176090  1  0.097042  0.170016  0.000577  4.044967  0.001
C  C15  1  0.61830461  0.67163279  0.48661723  1  0.095759  0.167436  0.000527  4.07857  0.0
C  C16  1  0.38171199  0.32836369  0.51339865  1  0.095846  0.167509  0.000528  4.07773  0.0
O  O17  1  0.23713386  0.15547384  0.82818834  1  -0.293151  -0.558665  0.023276  2.333214  0.04
O  O18  1  0.76284837  0.84451347  0.17181686  1  -0.293047  -0.558523  0.023256  2.333679  0.04
O  O19  1  0.00939514  0.51833194  0.80111104  1  -0.302609  -0.559148  0.000112  2.261374  0.001
O  O20  1  0.99062952  0.48165102  0.19888040  1  -0.302828  -0.559452  0.000114  2.259953  0.001
O  O21  1  0.29186516  0.69326347  0.02237466  1  -0.579307  -0.764713  0.027886  2.189122  0.046
O  O22  1  0.70811868  0.30674375  0.97762104  1  -0.579304  -0.764731  0.027885  2.189175  0.046
O  O23  1  0.78561973  0.95884110  0.82848139  1  -0.57757  -0.784692  0.031318  2.160456  0.048
O  O24  1  0.21435300  0.04118304  0.17151644  1  -0.577555  -0.78476  0.031318  2.160465  0.048
F  F25  1  0.43057839  0.72467520  0.71289612  1  -0.062379  -0.093304  0.00037  1.482899  0.001
F  F26  1  0.56945545  0.27529091  0.28710838  1  -0.062349  -0.093297  0.00037  1.48285  0.001
F  F27  1  0.74013756  0.83297000  0.48201816  1  -0.081511  -0.098993  0.000247  1.4363  0.0
F  F28  1  0.25988017  0.16701647  0.51798783  1  -0.081565  -0.099079  0.000247  1.436086  0.0
