# generated using pymatgen
data_CdH12C14(SN2)2
_symmetry_space_group_name_H-M   'P 1'
_cell_length_a   5.69709645
_cell_length_b   6.37219758
_cell_length_c   11.76945717
_cell_angle_alpha   111.35137595
_cell_angle_beta   93.93754595
_cell_angle_gamma   99.91418471
_symmetry_Int_Tables_number   1
_chemical_formula_structural   CdH12C14(SN2)2
_chemical_formula_sum   'Cd1 H12 C14 S2 N4'
_cell_volume   387.96042412
_cell_formula_units_Z   1
loop_
 _symmetry_equiv_pos_site_id
 _symmetry_equiv_pos_as_xyz
  1  'x, y, z'
loop_
 _atom_site_type_symbol
 _atom_site_label
 _atom_site_symmetry_multiplicity
 _atom_site_fract_x
 _atom_site_fract_y
 _atom_site_fract_z
 _atom_site_occupancy
 _atom_site_hle17_bader_spin_density
 _atom_site_hle17_ddec_charge
 _atom_site_hle17_ddec_spin_density
 _atom_site_hle17_ddec_sum_bond_order
 _atom_site_hle17_magmom
 _atom_site_hse06_10hf_bader_spin_density
 _atom_site_hse06_10hf_ddec_charge
 _atom_site_hse06_10hf_ddec_spin_density
 _atom_site_hse06_10hf_ddec_sum_bond_order
 _atom_site_hse06_10hf_magmom
 _atom_site_hse06_bader_spin_density
 _atom_site_hse06_ddec_charge
 _atom_site_hse06_ddec_spin_density
 _atom_site_hse06_ddec_sum_bond_order
 _atom_site_hse06_magmom
 _atom_site_pbe_bader_spin_density
 _atom_site_pbe_cm5_charge
 _atom_site_pbe_ddec_charge
 _atom_site_pbe_ddec_spin_density
 _atom_site_pbe_ddec_sum_bond_order
 _atom_site_pbe_magmom
Cd  Cd0  1  0.00007492  0.50002428  0.00001053  1  0  0.961923  0  1.973289  0  0  0.801183  0  2.427956  0  0  0.841909  0  2.393428  0  0  0.719883  0.773145  0  2.450861  0
H  H1  1  0.95759495  0.01952987  0.86752812  1  0  0.289458  0  0.934476  0  0  0.275033  0  1.001637  0  0  0.28096  0  0.997698  0  0  0.277409  0.27083  0  1.004442  0
H  H2  1  0.04238287  0.98049718  0.13248357  1  0  0.289553  0  0.934166  0  0  0.275119  0  1.001377  0  0  0.281047  0  0.997437  0  0  0.277432  0.270914  0  1.004186  0
H  H3  1  0.80219347  0.13811271  0.79408015  1  0  0.293051  0  0.918127  0  0  0.281815  0  0.980412  0  0  0.286617  0  0.978411  0  0  0.289916  0.278452  0  0.981798  0
H  H4  1  0.19781415  0.86196172  0.20595197  1  0  0.29307  0  0.918116  0  0  0.281909  0  0.980299  0  0  0.286711  0  0.978299  0  0  0.289981  0.278543  0  0.98169  0
H  H5  1  0.55590663  0.80522392  0.63454432  1  0  0.08118  0  0.980968  0  0  0.090244  0  1.047016  0  0  0.093233  0  1.044994  0  0  0.092483  0.08819  0  1.048383  0
H  H6  1  0.44407511  0.19478597  0.36546007  1  0  0.081085  0  0.980917  0  0  0.09012  0  1.047029  0  0  0.09311  0  1.044997  0  0  0.092382  0.088064  0  1.048398  0
H  H7  1  0.30671662  0.88485981  0.79949116  1  0  0.106196  0  0.970628  0  0  0.116694  0  1.032102  0  0  0.119069  0  1.032049  0  0  0.096473  0.114949  0  1.032346  0
H  H8  1  0.69330700  0.11518756  0.20053403  1  0  0.106181  0  0.970634  0  0  0.11667  0  1.032127  0  0  0.11904  0  1.032081  0  0  0.096487  0.114922  0  1.032376  0
H  H9  1  0.25503452  0.26628228  0.50182129  1  0  0.087464  0  0.955032  0  0  0.103124  0  1.007947  0  0  0.105734  0  1.006589  0  0  0.10014  0.101302  0  1.008877  0
H  H10  1  0.74486029  0.73363726  0.49814269  1  0  0.087549  0  0.95484  0  0  0.103178  0  1.007804  0  0  0.105786  0  1.00645  0  0  0.100179  0.101356  0  1.008721  0
H  H11  1  0.99860111  0.33390730  0.66304034  1  0  0.101389  0  0.95416  0  0  0.114773  0  1.011694  0  0  0.1176  0  1.010973  0  0  0.097094  0.112759  0  1.012315  0
H  H12  1  0.00132122  0.66602860  0.33693389  1  0  0.101403  0  0.954109  0  0  0.114761  0  1.01165  0  0  0.117605  0  1.010906  0  0  0.097094  0.112734  0  1.012305  0
C  C13  1  0.48353441  0.34278002  0.09344528  1  0  0.320308  0  3.97854  0  0  0.300558  0  4.28116  0  0  0.321771  0  4.295746  0  0  0.153294  0.286203  0  4.271019  0
C  C14  1  0.51659448  0.65724218  0.90655775  1  0  0.320605  0  3.978532  0  0  0.300839  0  4.281103  0  0  0.322056  0  4.295681  0  0  0.153496  0.286485  0  4.270959  0
C  C15  1  0.42788978  0.02692814  0.55155469  1  0  0.029181  0  3.798346  0  0  0.03964  0  4.039576  0  0  0.038627  0  4.064303  0  0  -0.019725  0.04029  0  4.022761  0
C  C16  1  0.57205057  0.97303934  0.44843477  1  0  0.029503  0  3.797878  0  0  0.039947  0  4.039112  0  0  0.038938  0  4.063837  0  0  -0.01971  0.040593  0  4.022302  0
C  C17  1  0.13091814  0.11091998  0.74112098  1  0  0.279244  0  3.790467  0  0  0.27779  0  4.036423  0  0  0.28454  0  4.05951  0  0  0.077889  0.273321  0  4.020419  0
C  C18  1  0.86905655  0.88907077  0.25887609  1  0  0.279178  0  3.790457  0  0  0.277613  0  4.036591  0  0  0.284365  0  4.059673  0  0  0.077887  0.273146  0  4.020588  0
C  C19  1  0.43772894  0.92493544  0.63942632  1  0  -0.112621  0  3.77673  0  0  -0.129999  0  4.02517  0  0  -0.13097  0  4.045247  0  0  -0.097863  -0.129327  0  4.011632  0
C  C20  1  0.56223326  0.07505504  0.36057270  1  0  -0.112575  0  3.776413  0  0  -0.129932  0  4.024845  0  0  -0.130905  0  4.04493  0  0  -0.09766  -0.129258  0  4.011314  0
C  C21  1  0.29433525  0.96709849  0.73326528  1  0  -0.171672  0  3.734839  0  0  -0.187445  0  3.979004  0  0  -0.192571  0  4.000667  0  0  -0.104787  -0.183981  0  3.964381  0
C  C22  1  0.70565760  0.03291525  0.26674457  1  0  -0.171636  0  3.734803  0  0  -0.187363  0  3.979021  0  0  -0.192484  0  4.000681  0  0  -0.104845  -0.1839  0  3.964397  0
C  C23  1  0.27092261  0.18026435  0.56587501  1  0  -0.087418  0  3.764505  0  0  -0.109117  0  4.016975  0  0  -0.110026  0  4.038072  0  0  -0.090636  -0.108265  0  4.002552  0
C  C24  1  0.72899497  0.81968342  0.43410124  1  0  -0.087652  0  3.763915  0  0  -0.109317  0  4.016367  0  0  -0.110234  0  4.037477  0  0  -0.090759  -0.10845  0  4.001933  0
C  C25  1  0.12461647  0.22096895  0.65787826  1  0  -0.163479  0  3.745265  0  0  -0.181228  0  3.995744  0  0  -0.186571  0  4.01781  0  0  -0.100535  -0.177676  0  3.980824  0
C  C26  1  0.87531549  0.77898099  0.34210159  1  0  -0.163476  0  3.744943  0  0  -0.181164  0  3.995485  0  0  -0.186516  0  4.017563  0  0  -0.100549  -0.177618  0  3.980566  0
S  S27  1  0.25018528  0.37576717  0.16600312  1  0  -0.33753  0  2.153011  0  0  -0.303042  0  2.475568  0  0  -0.318966  0  2.469027  0  0  -0.126725  -0.292134  0  2.479837  0
S  S28  1  0.74994920  0.62427587  0.83400832  1  0  -0.337622  0  2.153183  0  0  -0.303137  0  2.475739  0  0  -0.319058  0  2.469184  0  0  -0.126784  -0.292258  0  2.480058  0
N  N29  1  0.97266938  0.14493045  0.83148881  1  0  -0.65904  0  3.192435  0  0  -0.604803  0  3.421803  0  0  -0.62503  0  3.423197  0  0  -0.608209  -0.590534  0  3.420226  0
N  N30  1  0.02733833  0.85509561  0.16852062  1  0  -0.658986  0  3.191853  0  0  -0.604807  0  3.42128  0  0  -0.625036  0  3.422673  0  0  -0.608185  -0.590535  0  3.419706  0
N  N31  1  0.65176454  0.31364558  0.04044807  1  0  -0.536841  0  2.854597  0  0  -0.484732  0  3.127294  0  0  -0.505096  0  3.135468  0  0  -0.396219  -0.471035  0  3.121588  0
N  N32  1  0.34835955  0.68636108  0.95955267  1  0  -0.53697  0  2.854514  0  0  -0.484927  0  3.127403  0  0  -0.505258  0  3.135495  0  0  -0.39633  -0.471227  0  3.121696  0
