# generated using pymatgen
data_FePH9C3O4
_symmetry_space_group_name_H-M   'P 1'
_cell_length_a   4.76723757
_cell_length_b   5.73411508
_cell_length_c   11.72618014
_cell_angle_alpha   99.44517719
_cell_angle_beta   90.00063876
_cell_angle_gamma   89.99906863
_symmetry_Int_Tables_number   1
_chemical_formula_structural   FePH9C3O4
_chemical_formula_sum   'Fe2 P2 H18 C6 O8'
_cell_volume   316.19994445
_cell_formula_units_Z   2
loop_
 _symmetry_equiv_pos_site_id
 _symmetry_equiv_pos_as_xyz
  1  'x, y, z'
loop_
 _atom_site_type_symbol
 _atom_site_label
 _atom_site_symmetry_multiplicity
 _atom_site_fract_x
 _atom_site_fract_y
 _atom_site_fract_z
 _atom_site_occupancy
 _atom_site_hle17_ddec_charge
 _atom_site_hle17_ddec_spin_density
 _atom_site_hle17_ddec_sum_bond_order
 _atom_site_hle17_magmom
 _atom_site_hse06_10hf_ddec_charge
 _atom_site_hse06_10hf_ddec_spin_density
 _atom_site_hse06_10hf_ddec_sum_bond_order
 _atom_site_hse06_10hf_magmom
 _atom_site_hse06_ddec_charge
 _atom_site_hse06_ddec_spin_density
 _atom_site_hse06_ddec_sum_bond_order
 _atom_site_hse06_magmom
 _atom_site_pbe_cm5_charge
 _atom_site_pbe_ddec_charge
 _atom_site_pbe_ddec_spin_density
 _atom_site_pbe_ddec_sum_bond_order
 _atom_site_pbe_magmom
Fe  Fe0  1  0.75207278  0.25042533  0.02155488  1  1.190465  3.86493  1.849437  3.651  1.085853  3.849595  2.288122  3.653  1.152735  3.875718  2.216887  3.708  0.66865  1.030733  3.824353  2.342686  3.602
Fe  Fe1  1  0.25207844  0.74955969  0.97844101  1  1.19039  3.864924  1.84946  3.651  1.085824  3.849592  2.288178  3.653  1.152649  3.875701  2.216928  3.708  0.668659  1.030701  3.824914  2.342776  3.601
P  P2  1  0.19165922  0.21114010  0.85291201  1  1.509949  0.005298  4.736627  0.006  1.35877  0.010478  5.223483  0.011  1.409111  0.00761  5.193093  0.009  0.336833  1.322456  0.013216  5.243997  0.013
P  P3  1  0.69163585  0.78885455  0.14708774  1  1.510039  0.00529  4.736404  0.006  1.358832  0.010476  5.223266  0.011  1.409147  0.007608  5.192899  0.009  0.336793  1.322513  0.013214  5.243792  0.013
H  H4  1  0.20422941  0.41570827  0.15018177  1  0.435387  -0.001408  0.843408  -0.001  0.405637  -0.000863  0.917552  0.0  0.41582  -0.00099  0.902614  0.0  0.303553  0.398246  -0.000697  0.927307  0.0
H  H5  1  0.70426893  0.58432511  0.84982015  1  0.435342  -0.001408  0.84353  -0.001  0.405634  -0.000862  0.917546  0.0  0.415816  -0.000989  0.90261  0.0  0.303576  0.398245  -0.000698  0.927318  0.0
H  H6  1  0.16397196  0.14612699  0.15728397  1  0.431465  -0.00052  0.84553  0.0  0.403066  -9.8e-05  0.919182  0.001  0.412778  -0.000277  0.906675  0.001  0.304158  0.396066  9.5e-05  0.92698  0.001
H  H7  1  0.66392415  0.85390144  0.84270971  1  0.431425  -0.00052  0.845433  0.0  0.403085  -9.8e-05  0.919081  0.001  0.412805  -0.000277  0.906632  0.001  0.304147  0.396088  9.5e-05  0.926873  0.001
H  H8  1  0.17181610  0.95998294  0.67141857  1  0.127025  7e-05  0.936225  0.0  0.144771  0.000187  0.987897  0.001  0.146352  0.000113  0.988513  0.0  0.106994  0.143389  0.000266  0.988099  0.001
H  H9  1  0.67182288  0.04000840  0.32857999  1  0.127066  7.2e-05  0.936219  0.0  0.144786  0.000187  0.987902  0.001  0.146366  0.000113  0.988518  0.0  0.106991  0.143407  0.000267  0.988108  0.001
H  H10  1  0.86487171  0.13418422  0.70184864  1  0.131398  9.3e-05  0.948189  0.0  0.145851  0.000169  1.004427  0.001  0.148286  8e-05  1.003851  0.0  0.106058  0.144072  0.000267  1.004921  0.001
H  H11  1  0.36487976  0.86581532  0.29814801  1  0.131396  9.5e-05  0.948262  0.0  0.145835  0.00017  1.004496  0.001  0.148268  8e-05  1.003921  0.0  0.106052  0.14406  0.000267  1.004986  0.001
H  H12  1  0.43634824  0.31580299  0.62950841  1  0.053904  -3.2e-05  0.942695  0.0  0.074105  -2.6e-05  1.003818  0.0  0.074578  -3.7e-05  1.004342  0.0  0.088135  0.073692  -1.2e-05  1.003585  0.0
H  H13  1  0.93635814  0.68419756  0.37049546  1  0.053865  -3.5e-05  0.942662  0.0  0.074034  -2.6e-05  1.003858  0.0  0.074506  -3.7e-05  1.004381  0.0  0.088098  0.073619  -1.2e-05  1.003627  0.0
H  H14  1  0.14196053  0.49547496  0.66536741  1  0.060702  -0.000101  0.928187  0.0  0.081953  -9.5e-05  0.985242  0.0  0.082359  -0.000119  0.985916  0.0  0.090532  0.081416  -6.6e-05  0.985325  0.0
H  H15  1  0.64197720  0.50451682  0.33463531  1  0.0607  -0.000105  0.928168  0.0  0.081953  -9.5e-05  0.985225  0.0  0.082357  -0.000119  0.985898  0.0  0.090556  0.081416  -6.4e-05  0.985307  0.0
H  H16  1  0.18572626  0.37647893  0.44846053  1  0.095044  2.4e-05  0.968076  0.0  0.117264  4.5e-05  1.02961  0.0  0.118333  2.7e-05  1.030083  0.0  0.086304  0.116464  6.9e-05  1.02934  0.0
H  H17  1  0.68574225  0.62352643  0.55154172  1  0.095013  1.8e-05  0.9681  0.0  0.117258  4.5e-05  1.029609  0.0  0.118328  2.7e-05  1.030084  0.0  0.086313  0.116461  6.9e-05  1.029335  0.0
H  H18  1  0.16249796  0.07511215  0.46385186  1  0.089139  2e-06  0.977971  0.0  0.111967  2.5e-05  1.040786  0.0  0.11251  1.9e-05  1.042354  0.0  0.084081  0.111539  3.3e-05  1.03971  0.0
H  H19  1  0.66248871  0.92489520  0.53614703  1  0.089143  -3e-06  0.977921  0.0  0.111957  2.5e-05  1.040766  0.0  0.112502  1.8e-05  1.042331  0.0  0.084071  0.11153  3.3e-05  1.039687  0.0
H  H20  1  0.87160534  0.26486453  0.49927996  1  0.085161  -1e-06  0.973095  0.0  0.1076  1.4e-05  1.036173  0.0  0.108404  1.3e-05  1.036902  0.0  0.083733  0.106927  1.7e-05  1.035822  0.0
H  H21  1  0.37160676  0.73512968  0.50071973  1  0.08513  -7e-06  0.973059  0.0  0.107554  1.4e-05  1.036158  0.0  0.108358  1.3e-05  1.036889  0.0  0.08372  0.106886  1.7e-05  1.035801  0.0
C  C22  1  0.09563373  0.14045343  0.70280377  1  -0.445612  0.002314  3.661743  0.004  -0.460531  0.002348  3.906345  0.004  -0.470203  0.00162  3.915228  0.003  -0.167167  -0.453496  0.003145  3.90035  0.004
C  C23  1  0.59564448  0.85954056  0.29719209  1  -0.445754  0.002309  3.661967  0.004  -0.460592  0.002348  3.90653  0.004  -0.470266  0.001621  3.915411  0.003  -0.167134  -0.453537  0.003145  3.900486  0.004
C  C24  1  0.20563180  0.31474566  0.62745121  1  -0.009717  7.9e-05  3.715357  0.0  -0.048742  0.00029  3.978494  0.001  -0.04785  0.000159  3.993581  0.0  -0.162604  -0.049136  0.000451  3.968013  0.001
C  C25  1  0.70563964  0.68525235  0.37254886  1  -0.009577  8.8e-05  3.715295  0.0  -0.048622  0.00029  3.978427  0.001  -0.047726  0.000158  3.993511  0.0  -0.162577  -0.04901  0.000452  3.967951  0.001
C  C26  1  0.10152430  0.25493804  0.50305851  1  -0.28884  0.000137  3.697727  0.0  -0.365158  0.000206  3.944325  0.0  -0.367877  0.00014  3.956563  0.0  -0.247431  -0.362956  0.000282  3.935639  0.0
C  C27  1  0.60152803  0.74506126  0.49694204  1  -0.288788  0.000153  3.697607  0.0  -0.365118  0.000206  3.944253  0.0  -0.367823  0.00014  3.956458  0.0  -0.247428  -0.362922  0.000282  3.93556  0.0
O  O28  1  0.50915567  0.20837910  0.86623629  1  -0.865478  0.019402  2.02994  0.035  -0.783092  0.020429  2.303303  0.032  -0.816256  0.016697  2.284095  0.026  -0.364365  -0.757648  0.024072  2.315334  0.037
O  O29  1  0.00916703  0.79159831  0.13376046  1  -0.865448  0.019411  2.029304  0.035  -0.78309  0.020434  2.302683  0.032  -0.816192  0.016698  2.283416  0.026  -0.364345  -0.75763  0.024082  2.314695  0.037
O  O30  1  0.06305256  0.29704211  0.16302231  1  -0.813367  0.0152  1.890319  0.028  -0.76748  0.017008  2.110656  0.027  -0.79009  0.013994  2.078334  0.023  -0.566158  -0.750298  0.019951  2.131508  0.031
O  O31  1  0.56305793  0.70295238  0.83697940  1  -0.813286  0.015199  1.89038  0.028  -0.767541  0.017008  2.11055  0.027  -0.79014  0.013995  2.078293  0.023  -0.566181  -0.75036  0.019951  2.131407  0.031
O  O32  1  0.04224835  0.02622989  0.91769277  1  -0.90155  0.047824  2.111481  0.074  -0.814937  0.050041  2.410599  0.068  -0.854038  0.042435  2.386681  0.055  -0.379417  -0.784334  0.057168  2.427596  0.08
O  O33  1  0.54224475  0.97376489  0.08231058  1  -0.901605  0.047819  2.111599  0.074  -0.81495  0.050034  2.410622  0.068  -0.854052  0.042431  2.386713  0.055  -0.379471  -0.78437  0.057157  2.42765  0.08
O  O34  1  0.05405581  0.45423025  0.90391499  1  -0.884988  0.046698  2.053382  0.067  -0.796792  0.050251  2.345399  0.064  -0.834851  0.04281  2.321371  0.052  -0.37185  -0.767026  0.05711  2.362192  0.075
O  O35  1  0.55406312  0.54577320  0.09608737  1  -0.88514  0.046697  2.053583  0.067  -0.796945  0.050251  2.345636  0.064  -0.835006  0.042812  2.321616  0.052  -0.371878  -0.767203  0.057112  2.362511  0.075
