# generated using pymatgen
data_AgH2CN5
_symmetry_space_group_name_H-M   'P 1'
_cell_length_a   3.37237898
_cell_length_b   15.90266627
_cell_length_c   10.35356596
_cell_angle_alpha   89.99860349
_cell_angle_beta   89.99921780
_cell_angle_gamma   134.15315824
_symmetry_Int_Tables_number   1
_chemical_formula_structural   AgH2CN5
_chemical_formula_sum   'Ag4 H8 C4 N20'
_cell_volume   398.38802213
_cell_formula_units_Z   4
loop_
 _symmetry_equiv_pos_site_id
 _symmetry_equiv_pos_as_xyz
  1  'x, y, z'
loop_
 _atom_site_type_symbol
 _atom_site_label
 _atom_site_symmetry_multiplicity
 _atom_site_fract_x
 _atom_site_fract_y
 _atom_site_fract_z
 _atom_site_occupancy
 _atom_site_hle17_bader_spin_density
 _atom_site_hle17_ddec_charge
 _atom_site_hle17_ddec_spin_density
 _atom_site_hle17_ddec_sum_bond_order
 _atom_site_hle17_magmom
 _atom_site_hse06_10hf_bader_spin_density
 _atom_site_hse06_10hf_ddec_charge
 _atom_site_hse06_10hf_ddec_spin_density
 _atom_site_hse06_10hf_ddec_sum_bond_order
 _atom_site_hse06_10hf_magmom
 _atom_site_hse06_bader_spin_density
 _atom_site_hse06_ddec_charge
 _atom_site_hse06_ddec_spin_density
 _atom_site_hse06_ddec_sum_bond_order
 _atom_site_hse06_magmom
 _atom_site_pbe_bader_spin_density
 _atom_site_pbe_cm5_charge
 _atom_site_pbe_ddec_charge
 _atom_site_pbe_ddec_spin_density
 _atom_site_pbe_ddec_sum_bond_order
 _atom_site_pbe_magmom
Ag  Ag0  1  0.30247073  0.89632707  0.15283014  1  0  0.453351  0  1.551132  0  0  0.294405  0  2.035212  0  0  0.323505  0  1.986601  0  0  0.468734  0.273996  0  2.069408  0
Ag  Ag1  1  0.69751031  0.60366905  0.65282508  1  0  0.453336  0  1.550968  0  0  0.294407  0  2.034959  0  0  0.323508  0  1.986362  0  0  0.468731  0.27399  0  2.069179  0
Ag  Ag2  1  0.69752217  0.10366809  0.84717480  1  0  0.45334  0  1.551157  0  0  0.2944  0  2.035207  0  0  0.323496  0  1.986616  0  0  0.46873  0.273981  0  2.069433  0
Ag  Ag3  1  0.30247247  0.39632587  0.34717213  1  0  0.453373  0  1.551042  0  0  0.294451  0  2.035058  0  0  0.323542  0  1.986473  0  0  0.468764  0.274037  0  2.069284  0
H  H4  1  0.88126944  0.16011905  0.47302465  1  0  0.308923  0  0.96497  0  0  0.279289  0  1.054805  0  0  0.287049  0  1.048077  0  0  0.286796  0.273557  0  1.060188  0
H  H5  1  0.11869338  0.33985210  0.97304135  1  0  0.308784  0  0.964867  0  0  0.279135  0  1.054728  0  0  0.286894  0  1.04802  0  0  0.28665  0.273401  0  1.060106  0
H  H6  1  0.11876187  0.83988831  0.52698221  1  0  0.309007  0  0.964992  0  0  0.279355  0  1.054848  0  0  0.287113  0  1.048128  0  0  0.286857  0.273622  0  1.060238  0
H  H7  1  0.88125872  0.66013132  0.02696649  1  0  0.308753  0  0.965015  0  0  0.279106  0  1.054879  0  0  0.286866  0  1.048156  0  0  0.28671  0.273371  0  1.06026  0
H  H8  1  0.78631450  0.04660678  0.41170006  1  0  0.320144  0  0.899454  0  0  0.307361  0  0.962421  0  0  0.313719  0  0.956986  0  0  0.299758  0.302842  0  0.966342  0
H  H9  1  0.21374003  0.45342359  0.91169709  1  0  0.320205  0  0.89905  0  0  0.307408  0  0.962103  0  0  0.313768  0  0.956661  0  0  0.299622  0.302877  0  0.966043  0
H  H10  1  0.21368319  0.95338746  0.58830294  1  0  0.320202  0  0.899421  0  0  0.30741  0  0.962386  0  0  0.313784  0  0.956915  0  0  0.299786  0.302894  0  0.966298  0
H  H11  1  0.78631423  0.54659458  0.08829626  1  0  0.320146  0  0.899212  0  0  0.307272  0  0.962311  0  0  0.31364  0  0.956868  0  0  0.299668  0.302755  0  0.966212  0
C  C12  1  0.78430416  0.13719055  0.27675680  1  0  0.531469  0  3.867837  0  0  0.485415  0  4.142772  0  0  0.505816  0  4.156681  0  0  0.314665  0.471659  0  4.132942  0
C  C13  1  0.21560988  0.36279956  0.77676426  1  0  0.531205  0  3.866943  0  0  0.485356  0  4.141617  0  0  0.505755  0  4.155528  0  0  0.314532  0.471602  0  4.131778  0
C  C14  1  0.21578603  0.86282075  0.72324621  1  0  0.531421  0  3.868187  0  0  0.485415  0  4.143057  0  0  0.505814  0  4.156973  0  0  0.314622  0.471657  0  4.133223  0
C  C15  1  0.78424264  0.63718769  0.22323006  1  0  0.531188  0  3.86742  0  0  0.485252  0  4.142185  0  0  0.505656  0  4.156094  0  0  0.31448  0.471494  0  4.132355  0
N  N16  1  0.64521396  0.07227803  0.17047358  1  0  -0.374001  0  3.223937  0  0  -0.300557  0  3.532979  0  0  -0.321428  0  3.545743  0  0  -0.279572  -0.286331  0  3.523595  0
N  N17  1  0.35485151  0.42771835  0.67046082  1  0  -0.374037  0  3.223846  0  0  -0.300604  0  3.532803  0  0  -0.321478  0  3.545577  0  0  -0.279564  -0.286376  0  3.523413  0
N  N18  1  0.35478498  0.92772575  0.82952267  1  0  -0.373942  0  3.223691  0  0  -0.300511  0  3.532724  0  0  -0.321383  0  3.545489  0  0  -0.279554  -0.286286  0  3.52334  0
N  N19  1  0.64518590  0.57228350  0.32953446  1  0  -0.374058  0  3.223787  0  0  -0.30066  0  3.532844  0  0  -0.321534  0  3.545609  0  0  -0.279587  -0.286434  0  3.52346  0
N  N20  1  0.75488336  0.13966919  0.06904671  1  0  -0.077786  0  3.221172  0  0  -0.039444  0  3.537166  0  0  -0.043067  0  3.548729  0  0  -0.124566  -0.036079  0  3.52863  0
N  N21  1  0.24515845  0.36033511  0.56902521  1  0  -0.077618  0  3.221145  0  0  -0.039294  0  3.537138  0  0  -0.042915  0  3.548699  0  0  -0.124403  -0.03593  0  3.528606  0
N  N22  1  0.24513033  0.86032851  0.93095340  1  0  -0.077884  0  3.220901  0  0  -0.03954  0  3.536904  0  0  -0.04317  0  3.548468  0  0  -0.124596  -0.036173  0  3.528368  0
N  N23  1  0.75481089  0.63966129  0.43096524  1  0  -0.07773  0  3.221298  0  0  -0.039381  0  3.537275  0  0  -0.043005  0  3.548841  0  0  -0.124501  -0.036017  0  3.528742  0
N  N24  1  0.94398449  0.23919944  0.11032526  1  0  -0.083202  0  3.060899  0  0  -0.062903  0  3.338843  0  0  -0.061531  0  3.352413  0  0  -0.097055  -0.063944  0  3.329967  0
N  N25  1  0.05607557  0.26080300  0.61030469  1  0  -0.083122  0  3.060912  0  0  -0.062856  0  3.338901  0  0  -0.061481  0  3.352475  0  0  -0.097125  -0.0639  0  3.330027  0
N  N26  1  0.05603692  0.76079895  0.88967195  1  0  -0.083248  0  3.061053  0  0  -0.062954  0  3.339019  0  0  -0.061576  0  3.352592  0  0  -0.097102  -0.064002  0  3.33014  0
N  N27  1  0.94389617  0.73919295  0.38968480  1  0  -0.083186  0  3.060871  0  0  -0.062913  0  3.338849  0  0  -0.061541  0  3.352426  0  0  -0.097058  -0.063958  0  3.329976  0
N  N28  1  0.97078400  0.24147764  0.24113613  1  0  -0.37215  0  3.217394  0  0  -0.296576  0  3.528136  0  0  -0.31773  0  3.53921  0  0  -0.275135  -0.282301  0  3.520622  0
N  N29  1  0.02928640  0.25852183  0.74111673  1  0  -0.372306  0  3.217381  0  0  -0.296816  0  3.528161  0  0  -0.317969  0  3.539236  0  0  -0.275167  -0.282538  0  3.520643  0
N  N30  1  0.02922011  0.75852189  0.75887171  1  0  -0.372012  0  3.217128  0  0  -0.296488  0  3.527871  0  0  -0.317644  0  3.53895  0  0  -0.275035  -0.282208  0  3.52035  0
N  N31  1  0.97072783  0.74147794  0.25887372  1  0  -0.372161  0  3.217241  0  0  -0.296627  0  3.528022  0  0  -0.317781  0  3.539095  0  0  -0.275153  -0.282349  0  3.520506  0
N  N32  1  0.72009102  0.09958976  0.39980147  1  0  -0.706733  0  3.097989  0  0  -0.666983  0  3.338487  0  0  -0.686322  0  3.334014  0  0  -0.593637  -0.653384  0  3.341635  0
N  N33  1  0.28003800  0.40043476  0.89982513  1  0  -0.706548  0  3.096743  0  0  -0.666836  0  3.33714  0  0  -0.686176  0  3.332675  0  0  -0.593305  -0.653231  0  3.340283  0
N  N34  1  0.27990667  0.90040449  0.60021023  1  0  -0.706786  0  3.098501  0  0  -0.666983  0  3.338921  0  0  -0.686332  0  3.334438  0  0  -0.59368  -0.653388  0  3.342069  0
N  N35  1  0.71998612  0.59957397  0.10018657  1  0  -0.706338  0  3.097586  0  0  -0.666511  0  3.338137  0  0  -0.685862  0  3.333657  0  0  -0.59331  -0.652909  0  3.341278  0
