# generated using pymatgen
data_Cu2H5C3SN4ClO
_symmetry_space_group_name_H-M   'P 1'
_cell_length_a   6.02641957
_cell_length_b   6.99769522
_cell_length_c   10.15511516
_cell_angle_alpha   78.33166730
_cell_angle_beta   74.10756610
_cell_angle_gamma   76.29612793
_symmetry_Int_Tables_number   1
_chemical_formula_structural   Cu2H5C3SN4ClO
_chemical_formula_sum   'Cu4 H10 C6 S2 N8 Cl2 O2'
_cell_volume   395.80971470
_cell_formula_units_Z   2
loop_
 _symmetry_equiv_pos_site_id
 _symmetry_equiv_pos_as_xyz
  1  'x, y, z'
loop_
 _atom_site_type_symbol
 _atom_site_label
 _atom_site_symmetry_multiplicity
 _atom_site_fract_x
 _atom_site_fract_y
 _atom_site_fract_z
 _atom_site_occupancy
 _atom_site_hle17_bader_spin_density
 _atom_site_hle17_ddec_charge
 _atom_site_hle17_ddec_spin_density
 _atom_site_hle17_ddec_sum_bond_order
 _atom_site_hle17_magmom
 _atom_site_hse06_10hf_bader_spin_density
 _atom_site_hse06_10hf_ddec_charge
 _atom_site_hse06_10hf_ddec_spin_density
 _atom_site_hse06_10hf_ddec_sum_bond_order
 _atom_site_hse06_10hf_magmom
 _atom_site_hse06_bader_spin_density
 _atom_site_hse06_ddec_charge
 _atom_site_hse06_ddec_spin_density
 _atom_site_hse06_ddec_sum_bond_order
 _atom_site_hse06_magmom
 _atom_site_pbe_bader_spin_density
 _atom_site_pbe_cm5_charge
 _atom_site_pbe_ddec_charge
 _atom_site_pbe_ddec_spin_density
 _atom_site_pbe_ddec_sum_bond_order
 _atom_site_pbe_magmom
Cu  Cu0  1  0.55522312  0.19798793  0.48379653  1  0  0.383402  0  1.896725  0  0  0.274658  0  2.383922  0  0  0.289088  0  2.326748  0  0  0.371124  0.266338  0  2.422583  0
Cu  Cu1  1  0.44480606  0.80201698  0.51619226  1  0  0.383466  0  1.896655  0  0  0.274751  0  2.383865  0  0  0.289168  0  2.326681  0  0  0.371173  0.266392  0  2.422593  0
Cu  Cu2  1  0.14862848  0.53143070  0.37663199  1  0  0.352028  0  2.128179  0  0  0.259621  0  2.630984  0  0  0.260383  0  2.582981  0  0  0.371392  0.261028  0  2.662551  0
Cu  Cu3  1  0.85140693  0.46856983  0.62336036  1  0  0.352102  0  2.128028  0  0  0.259695  0  2.630835  0  0  0.260465  0  2.582828  0  0  0.371377  0.261108  0  2.66238  0
H  H4  1  0.17983023  0.09557977  0.85574891  1  0  0.330913  0  0.946652  0  0  0.300322  0  1.042733  0  0  0.309101  0  1.032592  0  0  0.28595  0.293828  0  1.050511  0
H  H5  1  0.82014443  0.90440738  0.14425750  1  0  0.33095  0  0.946709  0  0  0.300381  0  1.042743  0  0  0.309163  0  1.032597  0  0  0.28598  0.293886  0  1.050525  0
H  H6  1  0.07121573  0.40216491  0.13360606  1  0  0.086494  0  0.9529  0  0  0.099725  0  1.023545  0  0  0.101715  0  1.020236  0  0  0.105784  0.09813  0  1.025099  0
H  H7  1  0.92878243  0.59784006  0.86639182  1  0  0.08655  0  0.952882  0  0  0.099775  0  1.023486  0  0  0.101762  0  1.020178  0  0  0.105781  0.098185  0  1.025038  0
H  H8  1  0.92278564  0.25157494  0.07792137  1  0  0.101445  0  0.913494  0  0  0.117584  0  0.973595  0  0  0.118698  0  0.972123  0  0  0.119791  0.116506  0  0.974188  0
H  H9  1  0.07719289  0.74842569  0.92208732  1  0  0.101518  0  0.913691  0  0  0.117648  0  0.973742  0  0  0.118761  0  0.972272  0  0  0.11983  0.116572  0  0.974338  0
H  H10  1  0.26213199  0.38003933  0.88911675  1  0  0.046345  0  0.967394  0  0  0.061633  0  1.034283  0  0  0.061089  0  1.035723  0  0  0.086068  0.062147  0  1.032943  0
H  H11  1  0.73784501  0.61994468  0.11088087  1  0  0.046281  0  0.967468  0  0  0.061682  0  1.034235  0  0  0.06114  0  1.03567  0  0  0.086061  0.062195  0  1.032905  0
H  H12  1  0.45836797  0.23059549  0.98996005  1  0  0.070359  0  0.930863  0  0  0.081903  0  0.997464  0  0  0.082531  0  0.997021  0  0  0.099936  0.081086  0  0.998266  0
H  H13  1  0.54161561  0.76940480  0.01003012  1  0  0.070305  0  0.930861  0  0  0.081836  0  0.997496  0  0  0.082463  0  0.997055  0  0  0.099901  0.081061  0  0.998255  0
C  C14  1  0.27563979  0.09722029  0.29557252  1  0  0.298666  0  3.75439  0  0  0.252193  0  4.034226  0  0  0.280683  0  4.048644  0  0  0.228965  0.241449  0  4.02452  0
C  C15  1  0.72435908  0.90278177  0.70442863  1  0  0.298795  0  3.754695  0  0  0.252264  0  4.034555  0  0  0.280758  0  4.048963  0  0  0.229028  0.24151  0  4.024864  0
C  C16  1  0.09147762  0.26165601  0.09515748  1  0  -0.059043  0  3.624283  0  0  -0.13535  0  3.876289  0  0  -0.122017  0  3.889567  0  0  -0.056636  -0.136158  0  3.869041  0
C  C17  1  0.90852678  0.73834462  0.90484592  1  0  -0.059308  0  3.62452  0  0  -0.135554  0  3.876341  0  0  -0.12223  0  3.88964  0  0  -0.056718  -0.136368  0  3.869107  0
C  C18  1  0.28954096  0.24373070  0.96390053  1  0  0.113143  0  3.6484  0  0  0.058344  0  3.916777  0  0  0.064792  0  3.921946  0  0  -0.084526  0.054284  0  3.911132  0
C  C19  1  0.71044682  0.75626681  0.03609920  1  0  0.113221  0  3.64835  0  0  0.058313  0  3.916762  0  0  0.064761  0  3.92193  0  0  -0.084516  0.054225  0  3.911123  0
S  S20  1  0.42296898  0.27880981  0.29705526  1  0  -0.348902  0  2.815197  0  0  -0.320064  0  3.321382  0  0  -0.329162  0  3.284656  0  0  -0.232034  -0.31527  0  3.34394  0
S  S21  1  0.57705437  0.72119816  0.70293799  1  0  -0.348954  0  2.815272  0  0  -0.320134  0  3.321477  0  0  -0.329227  0  3.284741  0  0  -0.232043  -0.315337  0  3.344027  0
N  N22  1  0.28463440  0.91574843  0.37239799  1  0  -0.264981  0  3.282893  0  0  -0.207026  0  3.605926  0  0  -0.219746  0  3.603088  0  0  -0.280538  -0.199063  0  3.605343  0
N  N23  1  0.71537795  0.08424782  0.62760868  1  0  -0.264953  0  3.283018  0  0  -0.206961  0  3.60597  0  0  -0.219686  0  3.603151  0  0  -0.280445  -0.198986  0  3.605394  0
N  N24  1  0.16094975  0.81607672  0.32516858  1  0  -0.009215  0  3.259329  0  0  0.022518  0  3.595144  0  0  0.029853  0  3.587244  0  0  -0.133897  0.016918  0  3.598713  0
N  N25  1  0.83905431  0.18392540  0.67483466  1  0  -0.009285  0  3.259333  0  0  0.022445  0  3.595127  0  0  0.029773  0  3.58723  0  0  -0.133902  0.016841  0  3.598686  0
N  N26  1  0.07212805  0.92836433  0.22580349  1  0  -0.08464  0  2.877369  0  0  -0.090021  0  3.150257  0  0  -0.073188  0  3.158444  0  0  -0.062542  -0.093653  0  3.150101  0
N  N27  1  0.92786429  0.07163631  0.77420290  1  0  -0.084662  0  2.877611  0  0  -0.090018  0  3.150408  0  0  -0.073179  0  3.158595  0  0  -0.062592  -0.093648  0  3.150243  0
N  N28  1  0.14048579  0.10399770  0.20686428  1  0  0.010988  0  3.49603  0  0  0.130562  0  3.674113  0  0  0.083344  0  3.741307  0  0  -0.115784  0.137606  0  3.659504  0
N  N29  1  0.85950517  0.89601621  0.79313446  1  0  0.011068  0  3.496129  0  0  0.130712  0  3.674041  0  0  0.083488  0  3.741239  0  0  -0.115689  0.137762  0  3.659437  0
Cl  Cl30  1  0.22905855  0.48758869  0.61876217  1  0  -0.498252  0  1.41884  0  0  -0.422706  0  1.81721  0  0  -0.436024  0  1.776191  0  0  -0.2889  -0.413796  0  1.844525  0
Cl  Cl31  1  0.77097200  0.51240292  0.38123231  1  0  -0.498235  0  1.418773  0  0  -0.422665  0  1.817091  0  0  -0.435982  0  1.776068  0  0  -0.288884  -0.413755  0  1.844414  0
O  O32  1  0.30521933  0.07158858  0.90556160  1  0  -0.528811  0  2.105715  0  0  -0.484031  0  2.34766  0  0  -0.501266  0  2.340464  0  0  -0.414244  -0.47151  0  2.352195  0
O  O33  1  0.69476021  0.92840753  0.09444464  1  0  -0.528802  0  2.105677  0  0  -0.484034  0  2.347635  0  0  -0.50127  0  2.340437  0  0  -0.41425  -0.471511  0  2.352175  0
