# generated using pymatgen
data_CdH10C4(BrN)2
_symmetry_space_group_name_H-M   'P 1'
_cell_length_a   6.89422136
_cell_length_b   8.30808626
_cell_length_c   8.30809076
_cell_angle_alpha   113.90571266
_cell_angle_beta   90.18370870
_cell_angle_gamma   90.18402245
_symmetry_Int_Tables_number   1
_chemical_formula_structural   CdH10C4(BrN)2
_chemical_formula_sum   'Cd2 H20 C8 Br4 N4'
_cell_volume   435.03839662
_cell_formula_units_Z   2
loop_
 _symmetry_equiv_pos_site_id
 _symmetry_equiv_pos_as_xyz
  1  'x, y, z'
loop_
 _atom_site_type_symbol
 _atom_site_label
 _atom_site_symmetry_multiplicity
 _atom_site_fract_x
 _atom_site_fract_y
 _atom_site_fract_z
 _atom_site_occupancy
 _atom_site_pbe_bader_spin_density
 _atom_site_pbe_cm5_charge
 _atom_site_pbe_ddec_charge
 _atom_site_pbe_ddec_spin_density
 _atom_site_pbe_ddec_sum_bond_order
 _atom_site_pbe_magmom
Cd  Cd0  1  0.74999455  0.07002476  0.92998032  1  0  0.547466  0.651803  0  2.350685  0
Cd  Cd1  1  0.24999864  0.92997717  0.07002267  1  0  0.547469  0.651798  0  2.350716  0
H  H2  1  0.06688406  0.28345337  0.01422676  1  0  0.261522  0.219183  0  1.018823  0
H  H3  1  0.43311628  0.98577378  0.71654309  1  0  0.261518  0.219168  0  1.018792  0
H  H4  1  0.93311195  0.71654195  0.98577118  1  0  0.261525  0.219182  0  1.018741  0
H  H5  1  0.56688856  0.01422806  0.28345513  1  0  0.261533  0.2192  0  1.01873  0
H  H6  1  0.85471225  0.45097376  0.24557003  1  0  0.09576  0.09271  0  0.991298  0
H  H7  1  0.64530026  0.75443602  0.54902417  1  0  0.095747  0.092679  0  0.991269  0
H  H8  1  0.14528665  0.54902154  0.75442912  1  0  0.095781  0.092748  0  0.991253  0
H  H9  1  0.35471184  0.24556708  0.45097461  1  0  0.095764  0.09273  0  0.991282  0
H  H10  1  0.73401004  0.52324879  0.09721845  1  0  0.090397  0.074992  0  1.022808  0
H  H11  1  0.76599115  0.90279018  0.47674876  1  0  0.090427  0.075057  0  1.02281  0
H  H12  1  0.26598307  0.47674655  0.90278067  1  0  0.090404  0.075032  0  1.022782  0
H  H13  1  0.23401375  0.09721692  0.52325279  1  0  0.090399  0.075019  0  1.022804  0
H  H14  1  0.83944628  0.40636814  0.78627276  1  0  0.098845  0.084291  0  1.003532  0
H  H15  1  0.66054900  0.21373125  0.59362928  1  0  0.098847  0.084292  0  1.003563  0
H  H16  1  0.16054972  0.59362587  0.21372464  1  0  0.098843  0.084297  0  1.003559  0
H  H17  1  0.33945583  0.78627323  0.40637603  1  0  0.098829  0.08427  0  1.003566  0
H  H18  1  0.02728654  0.24634714  0.71745460  1  0  0.095653  0.083521  0  1.013618  0
H  H19  1  0.47270840  0.28254728  0.75365012  1  0  0.095652  0.083536  0  1.013641  0
H  H20  1  0.97270947  0.75364818  0.28254454  1  0  0.095656  0.083536  0  1.01357  0
H  H21  1  0.52729351  0.71745458  0.24635170  1  0  0.095665  0.083539  0  1.01366  0
C  C22  1  0.87538407  0.48460980  0.13176865  1  0  -0.0851  -0.060282  0  3.88671  0
C  C23  1  0.62462315  0.86823607  0.51538879  1  0  -0.085091  -0.060299  0  3.886683  0
C  C24  1  0.12461190  0.51538289  0.86822943  1  0  -0.085175  -0.060445  0  3.886773  0
C  C25  1  0.37538460  0.13176838  0.48461292  1  0  -0.085145  -0.060376  0  3.886789  0
C  C26  1  0.97707327  0.36647187  0.82609996  1  0  -0.081593  -0.053965  0  3.874035  0
C  C27  1  0.52291965  0.17390086  0.63352600  1  0  -0.081585  -0.053993  0  3.873987  0
C  C28  1  0.02291983  0.63352216  0.17389743  1  0  -0.08164  -0.054056  0  3.873974  0
C  C29  1  0.47708660  0.82610097  0.36647704  1  0  -0.08164  -0.054024  0  3.874023  0
Br  Br30  1  0.41799164  0.25806463  0.10832284  1  0  -0.254766  -0.459504  0  1.299279  0
Br  Br31  1  0.08199902  0.89168365  0.74194412  1  0  -0.254773  -0.45952  0  1.299344  0
Br  Br32  1  0.58199875  0.74194390  0.89168400  1  0  -0.25477  -0.45951  0  1.299355  0
Br  Br33  1  0.91800139  0.10831559  0.25805783  1  0  -0.254768  -0.459507  0  1.29934  0
N  N34  1  0.93825428  0.32496179  0.98015350  1  0  -0.49442  -0.30681  0  3.456435  0
N  N35  1  0.56174731  0.01984787  0.67503629  1  0  -0.494421  -0.306773  0  3.456405  0
N  N36  1  0.06174176  0.67503484  0.01984376  1  0  -0.494391  -0.306707  0  3.456238  0
N  N37  1  0.43825608  0.98015529  0.32496366  1  0  -0.494422  -0.306811  0  3.456264  0
