# generated using pymatgen
data_CuH5C4N3Cl2
_symmetry_space_group_name_H-M   'P 1'
_cell_length_a   4.08338273
_cell_length_b   7.02218161
_cell_length_c   12.16574102
_cell_angle_alpha   89.99793411
_cell_angle_beta   89.99639096
_cell_angle_gamma   102.35198242
_symmetry_Int_Tables_number   1
_chemical_formula_structural   CuH5C4N3Cl2
_chemical_formula_sum   'Cu2 H10 C8 N6 Cl4'
_cell_volume   340.76849339
_cell_formula_units_Z   2
loop_
 _symmetry_equiv_pos_site_id
 _symmetry_equiv_pos_as_xyz
  1  'x, y, z'
loop_
 _atom_site_type_symbol
 _atom_site_label
 _atom_site_symmetry_multiplicity
 _atom_site_fract_x
 _atom_site_fract_y
 _atom_site_fract_z
 _atom_site_occupancy
 _atom_site_hle17_bader_spin_density
 _atom_site_hle17_ddec_charge
 _atom_site_hle17_ddec_spin_density
 _atom_site_hle17_ddec_sum_bond_order
 _atom_site_hle17_magmom
 _atom_site_hse06_10hf_bader_spin_density
 _atom_site_hse06_10hf_ddec_charge
 _atom_site_hse06_10hf_ddec_spin_density
 _atom_site_hse06_10hf_ddec_sum_bond_order
 _atom_site_hse06_10hf_magmom
 _atom_site_hse06_bader_spin_density
 _atom_site_hse06_ddec_charge
 _atom_site_hse06_ddec_spin_density
 _atom_site_hse06_ddec_sum_bond_order
 _atom_site_hse06_magmom
 _atom_site_pbe_bader_spin_density
 _atom_site_pbe_cm5_charge
 _atom_site_pbe_ddec_charge
 _atom_site_pbe_ddec_spin_density
 _atom_site_pbe_ddec_sum_bond_order
 _atom_site_pbe_magmom
Cu  Cu0  1  0.99999418  0.00000228  0.50000115  1  0  0.691927  0  1.893173  0  0  0.615121  0  2.336225  0  0  0.641807  0  2.287582  0  0  0.559599  0.597689  0  2.369845  0
Cu  Cu1  1  0.99998931  0.99999563  0.00000050  1  0  0.691784  0  1.893454  0  0  0.61527  0  2.336505  0  0  0.641923  0  2.287851  0  0  0.559533  0.597368  0  2.370128  0
H  H2  1  0.30370800  0.85211669  0.67817569  1  0  0.323524  0  0.943687  0  0  0.302803  0  1.017324  0  0  0.310939  0  1.010039  0  0  0.274007  0.296961  0  1.022647  0
H  H3  1  0.69626287  0.14787587  0.17817462  1  0  0.323576  0  0.943647  0  0  0.302775  0  1.01737  0  0  0.31091  0  1.010088  0  0  0.273973  0.296948  0  1.022663  0
H  H4  1  0.69625913  0.14788056  0.32181815  1  0  0.323555  0  0.943701  0  0  0.30277  0  1.017393  0  0  0.310904  0  1.010112  0  0  0.273942  0.296925  0  1.022722  0
H  H5  1  0.30372774  0.85210405  0.82181840  1  0  0.32358  0  0.943589  0  0  0.302757  0  1.017341  0  0  0.310892  0  1.010061  0  0  0.274001  0.296933  0  1.022629  0
H  H6  1  0.86049701  0.36209420  0.57332368  1  0  0.085399  0  0.971727  0  0  0.092423  0  1.040239  0  0  0.094659  0  1.036601  0  0  0.103866  0.09054  0  1.043132  0
H  H7  1  0.13951539  0.63791327  0.07331725  1  0  0.08531  0  0.971863  0  0  0.092275  0  1.040405  0  0  0.094528  0  1.036748  0  0  0.103818  0.090409  0  1.043241  0
H  H8  1  0.13949720  0.63790313  0.42667674  1  0  0.085343  0  0.97183  0  0  0.092395  0  1.040287  0  0  0.094618  0  1.036662  0  0  0.103856  0.09052  0  1.043171  0
H  H9  1  0.86049834  0.36209519  0.92668152  1  0  0.085292  0  0.971816  0  0  0.092319  0  1.040319  0  0  0.094541  0  1.036693  0  0  0.103821  0.090451  0  1.043158  0
H  H10  1  0.78482358  0.53732587  0.75000328  1  0  0.131066  0  0.972564  0  0  0.135761  0  1.037822  0  0  0.13932  0  1.038666  0  0  0.096823  0.133096  0  1.037773  0
H  H11  1  0.21521006  0.46268370  0.24999714  1  0  0.130964  0  0.97269  0  0  0.135809  0  1.037822  0  0  0.139368  0  1.038666  0  0  0.096808  0.13314  0  1.03778  0
C  C12  1  0.08030053  0.05573345  0.74999788  1  0  0.635078  0  3.793489  0  0  0.589909  0  4.058657  0  0  0.6166  0  4.068668  0  0  0.350151  0.572312  0  4.051154  0
C  C13  1  0.91970423  0.94426734  0.25000582  1  0  0.63514  0  3.793358  0  0  0.589949  0  4.058541  0  0  0.616643  0  4.068556  0  0  0.350111  0.57235  0  4.051029  0
C  C14  1  0.90976230  0.30389735  0.65307913  1  0  0.214177  0  3.678391  0  0  0.17318  0  3.934195  0  0  0.189749  0  3.947119  0  0  0.060072  0.162553  0  3.925467  0
C  C15  1  0.09025470  0.69610339  0.15307694  1  0  0.214215  0  3.678749  0  0  0.173302  0  3.934549  0  0  0.18986  0  3.947486  0  0  0.060109  0.162675  0  3.925628  0
C  C16  1  0.09024345  0.69609632  0.34692375  1  0  0.214225  0  3.678359  0  0  0.173284  0  3.93414  0  0  0.18986  0  3.947071  0  0  0.060047  0.162655  0  3.9254  0
C  C17  1  0.90975406  0.30390479  0.84692512  1  0  0.214278  0  3.678551  0  0  0.17323  0  3.934379  0  0  0.189807  0  3.947329  0  0  0.060089  0.162606  0  3.925469  0
C  C18  1  0.86320520  0.39891922  0.75000368  1  0  -0.203742  0  3.690873  0  0  -0.213475  0  3.946187  0  0  -0.229704  0  3.967775  0  0  -0.108926  -0.203275  0  3.932138  0
C  C19  1  0.13681849  0.60108980  0.24999509  1  0  -0.203589  0  3.691092  0  0  -0.213568  0  3.946401  0  0  -0.229798  0  3.967994  0  0  -0.108872  -0.20336  0  3.932346  0
N  N20  1  0.22247061  0.90314243  0.74999878  1  0  -0.666777  0  3.173179  0  0  -0.630402  0  3.406277  0  0  -0.653074  0  3.403672  0  0  -0.569238  -0.614724  0  3.408016  0
N  N21  1  0.77751892  0.09685607  0.24999917  1  0  -0.66689  0  3.173292  0  0  -0.630438  0  3.406313  0  0  -0.653111  0  3.403709  0  0  -0.569166  -0.614751  0  3.408047  0
N  N22  1  0.00923282  0.13395131  0.65225743  1  0  -0.429208  0  3.214284  0  0  -0.359054  0  3.492725  0  0  -0.382603  0  3.502487  0  0  -0.343431  -0.34388  0  3.486174  0
N  N23  1  0.99079144  0.86605992  0.15226784  1  0  -0.429067  0  3.214143  0  0  -0.35898  0  3.492653  0  0  -0.382506  0  3.502344  0  0  -0.34336  -0.343725  0  3.486014  0
N  N24  1  0.99076298  0.86604180  0.34774463  1  0  -0.429355  0  3.214244  0  0  -0.359267  0  3.492744  0  0  -0.382799  0  3.502462  0  0  -0.343496  -0.344092  0  3.486197  0
N  N25  1  0.00920676  0.13394481  0.84773422  1  0  -0.429099  0  3.214134  0  0  -0.358973  0  3.492669  0  0  -0.382484  0  3.502336  0  0  -0.343367  -0.343688  0  3.485953  0
Cl  Cl26  1  0.62134343  0.74365668  0.56098016  1  0  -0.487724  0  1.064976  0  0  -0.457853  0  1.371212  0  0  -0.470262  0  1.346318  0  0  -0.258645  -0.44872  0  1.388647  0
Cl  Cl27  1  0.37857066  0.25632728  0.06096848  1  0  -0.487599  0  1.064992  0  0  -0.457727  0  1.371238  0  0  -0.470149  0  1.346342  0  0  -0.258729  -0.448591  0  1.388557  0
Cl  Cl28  1  0.37865696  0.25634673  0.43902190  1  0  -0.487721  0  1.064932  0  0  -0.45783  0  1.371176  0  0  -0.470244  0  1.346287  0  0  -0.258652  -0.448695  0  1.388607  0
Cl  Cl29  1  0.62142106  0.74366991  0.93903193  1  0  -0.487663  0  1.065136  0  0  -0.457764  0  1.371361  0  0  -0.47019  0  1.346471  0  0  -0.258742  -0.44863  0  1.388682  0
