# generated using pymatgen
data_ScH3(CO2)3
_symmetry_space_group_name_H-M   'P 1'
_cell_length_a   6.81334135
_cell_length_b   6.81262545
_cell_length_c   6.81260732
_cell_angle_alpha   101.44498298
_cell_angle_beta   101.45711799
_cell_angle_gamma   101.44681641
_symmetry_Int_Tables_number   1
_chemical_formula_structural   ScH3(CO2)3
_chemical_formula_sum   'Sc2 H6 C6 O12'
_cell_volume   294.29465003
_cell_formula_units_Z   2
loop_
 _symmetry_equiv_pos_site_id
 _symmetry_equiv_pos_as_xyz
  1  'x, y, z'
loop_
 _atom_site_type_symbol
 _atom_site_label
 _atom_site_symmetry_multiplicity
 _atom_site_fract_x
 _atom_site_fract_y
 _atom_site_fract_z
 _atom_site_occupancy
 _atom_site_pbe_bader_spin_density
 _atom_site_pbe_cm5_charge
 _atom_site_pbe_ddec_charge
 _atom_site_pbe_ddec_spin_density
 _atom_site_pbe_ddec_sum_bond_order
 _atom_site_pbe_magmom
Sc  Sc0  1  0.00016301  0.99993641  0.00003358  1  0  1.255467  1.815726  0  2.25523  0
Sc  Sc1  1  0.49991211  0.50015075  0.50005661  1  0  1.255459  1.815766  0  2.255118  0
H  H2  1  0.42604406  0.74990980  0.07381797  1  0  0.129983  0.036781  0  0.972662  0
H  H3  1  0.07388003  0.42619074  0.75005394  1  0  0.129901  0.036714  0  0.972976  0
H  H4  1  0.74999159  0.07382973  0.42615088  1  0  0.130002  0.036858  0  0.973083  0
H  H5  1  0.57380563  0.24992401  0.92610238  1  0  0.129968  0.036671  0  0.973084  0
H  H6  1  0.92620208  0.57389319  0.25004125  1  0  0.129957  0.036708  0  0.973144  0
H  H7  1  0.24998262  0.92608580  0.57383128  1  0  0.129978  0.036838  0  0.972832  0
C  C8  1  0.53071448  0.75000662  0.96929267  1  0  0.198202  0.598217  0  4.111039  0
C  C9  1  0.96927263  0.53070622  0.74998641  1  0  0.198325  0.598685  0  4.111983  0
C  C10  1  0.75004231  0.96932705  0.53074212  1  0  0.198276  0.598628  0  4.112093  0
C  C11  1  0.46933288  0.25001049  0.03070513  1  0  0.198225  0.598776  0  4.112679  0
C  C12  1  0.03068053  0.46929989  0.24998665  1  0  0.198218  0.598674  0  4.112553  0
C  C13  1  0.25002237  0.03073938  0.46927537  1  0  0.198242  0.598204  0  4.111315  0
O  O14  1  0.70116775  0.88540715  0.03049048  1  0  -0.373023  -0.620055  0  2.354407  0
O  O15  1  0.03047670  0.70114619  0.88539843  1  0  -0.373559  -0.620401  0  2.355418  0
O  O16  1  0.46945933  0.61455788  0.79881007  1  0  -0.373563  -0.620277  0  2.354373  0
O  O17  1  0.88540081  0.03043495  0.70120044  1  0  -0.373225  -0.620092  0  2.355125  0
O  O18  1  0.79882235  0.46955896  0.61458150  1  0  -0.373143  -0.620207  0  2.354404  0
O  O19  1  0.61462861  0.79885883  0.46955221  1  0  -0.373602  -0.620504  0  2.355158  0
O  O20  1  0.29887602  0.11459611  0.96949931  1  0  -0.37358  -0.620521  0  2.355005  0
O  O21  1  0.96954549  0.29885058  0.11463399  1  0  -0.37315  -0.620235  0  2.354904  0
O  O22  1  0.53045770  0.38538991  0.20113462  1  0  -0.373105  -0.620274  0  2.355154  0
O  O23  1  0.11457144  0.96950218  0.29879900  1  0  -0.373558  -0.620247  0  2.354755  0
O  O24  1  0.20114098  0.53049690  0.38538343  1  0  -0.37355  -0.620437  0  2.355287  0
O  O25  1  0.38540981  0.20119263  0.53044352  1  0  -0.373146  -0.619998  0  2.354599  0
