# generated using pymatgen
data_Ag2H6C4S(IN)2
_symmetry_space_group_name_H-M   'P 1'
_cell_length_a   7.54390762
_cell_length_b   7.89790671
_cell_length_c   10.31848050
_cell_angle_alpha   75.97566116
_cell_angle_beta   70.60620399
_cell_angle_gamma   69.63253948
_symmetry_Int_Tables_number   1
_chemical_formula_structural   Ag2H6C4S(IN)2
_chemical_formula_sum   'Ag4 H12 C8 S2 I4 N4'
_cell_volume   538.03183916
_cell_formula_units_Z   2
loop_
 _symmetry_equiv_pos_site_id
 _symmetry_equiv_pos_as_xyz
  1  'x, y, z'
loop_
 _atom_site_type_symbol
 _atom_site_label
 _atom_site_symmetry_multiplicity
 _atom_site_fract_x
 _atom_site_fract_y
 _atom_site_fract_z
 _atom_site_occupancy
 _atom_site_pbe_bader_spin_density
 _atom_site_pbe_cm5_charge
 _atom_site_pbe_ddec_charge
 _atom_site_pbe_ddec_spin_density
 _atom_site_pbe_ddec_sum_bond_order
 _atom_site_pbe_magmom
Ag  Ag0  1  0.57103331  0.84304666  0.91954233  1  0  0.179759  0.175579  0  2.58623  0
Ag  Ag1  1  0.42897991  0.15696316  0.08045968  1  0  0.17977  0.175602  0  2.586159  0
Ag  Ag2  1  0.79464717  0.52390752  0.07061555  1  0  0.185415  0.187343  0  2.585944  0
Ag  Ag3  1  0.20537742  0.47608880  0.92937452  1  0  0.185346  0.187268  0  2.585816  0
H  H4  1  0.96244022  0.13387367  0.86289095  1  0  0.286893  0.265183  0  1.003172  0
H  H5  1  0.03756346  0.86615245  0.13711430  1  0  0.286974  0.265262  0  1.003176  0
H  H6  1  0.95616983  0.27670683  0.61108639  1  0  0.111528  0.116882  0  1.029357  0
H  H7  1  0.04383221  0.72331110  0.38890817  1  0  0.111521  0.116864  0  1.029405  0
H  H8  1  0.25121678  0.02551718  0.44857142  1  0  0.107426  0.120877  0  1.050165  0
H  H9  1  0.74877549  0.97447050  0.55142629  1  0  0.107403  0.120824  0  1.05027  0
H  H10  1  0.38007899  0.60887018  0.61893495  1  0  0.086925  0.117407  0  1.022477  0
H  H11  1  0.61989672  0.39113372  0.38106579  1  0  0.086907  0.117483  0  1.022432  0
H  H12  1  0.54006807  0.67453064  0.67890921  1  0  0.086941  0.112368  0  1.057295  0
H  H13  1  0.45990600  0.32545680  0.32109206  1  0  0.086937  0.112381  0  1.057148  0
H  H14  1  0.52857465  0.74764418  0.50250961  1  0  0.09271  0.123555  0  1.032045  0
H  H15  1  0.47139956  0.25234733  0.49749960  1  0  0.092672  0.123599  0  1.031939  0
C  C16  1  0.19666377  0.91502048  0.78312899  1  0  0.208965  0.263524  0  4.026677  0
C  C17  1  0.80334133  0.08497967  0.21687003  1  0  0.208984  0.26357  0  4.026619  0
C  C18  1  0.05695670  0.14730908  0.63948315  1  0  -0.0007  -0.031827  0  3.981984  0
C  C19  1  0.94304893  0.85269380  0.36051814  1  0  -0.000712  -0.031748  0  3.982057  0
C  C20  1  0.20257998  0.02474015  0.55993490  1  0  -2.5e-05  -0.092836  0  3.916009  0
C  C21  1  0.79742396  0.97524216  0.44006769  1  0  5.3e-05  -0.092741  0  3.916098  0
C  C22  1  0.44403577  0.71822288  0.60984754  1  0  -0.145451  -0.269566  0  3.87507  0
C  C23  1  0.55594765  0.28176192  0.39015676  1  0  -0.145401  -0.269687  0  3.874809  0
S  S24  1  0.25149508  0.78095035  0.93000670  1  0  -0.211236  -0.341573  0  2.964241  0
S  S25  1  0.74850643  0.21906484  0.06998656  1  0  -0.211253  -0.341567  0  2.964247  0
I  I26  1  0.49065069  0.78995051  0.22087327  1  0  -0.179417  -0.276861  0  2.015397  0
I  I27  1  0.50937816  0.21004998  0.77911595  1  0  -0.17938  -0.276826  0  2.015347  0
I  I28  1  0.91760992  0.61202463  0.76574779  1  0  -0.19019  -0.285786  0  1.857457  0
I  I29  1  0.08239472  0.38797689  0.23425012  1  0  -0.190159  -0.285737  0  1.857402  0
N  N30  1  0.05614685  0.07717672  0.77567726  1  0  -0.376184  -0.233361  0  3.702773  0
N  N31  1  0.94386168  0.92283029  0.22432740  1  0  -0.376253  -0.233536  0  3.702861  0
N  N32  1  0.28858669  0.88260856  0.64955108  1  0  -0.243375  0.049081  0  3.750028  0
N  N33  1  0.71141121  0.11737504  0.35045374  1  0  -0.243392  0.048999  0  3.750078  0
