# generated using pymatgen
data_ZnH3C11NO4
_symmetry_space_group_name_H-M   'P 1'
_cell_length_a   10.63741414
_cell_length_b   11.91044153
_cell_length_c   16.09390976
_cell_angle_alpha   90.01160171
_cell_angle_beta   90.13748937
_cell_angle_gamma   90.00861520
_symmetry_Int_Tables_number   1
_chemical_formula_structural   ZnH3C11NO4
_chemical_formula_sum   'Zn2 H6 C22 N2 O8'
_cell_volume   2039.03286921
_cell_formula_units_Z   2
loop_
 _symmetry_equiv_pos_site_id
 _symmetry_equiv_pos_as_xyz
  1  'x, y, z'
loop_
 _atom_site_type_symbol
 _atom_site_label
 _atom_site_symmetry_multiplicity
 _atom_site_fract_x
 _atom_site_fract_y
 _atom_site_fract_z
 _atom_site_occupancy
 _atom_site_pbe_bader_charge
 _atom_site_pbe_bader_spin_density
 _atom_site_pbe_cm5_charge
 _atom_site_pbe_ddec_charge
 _atom_site_pbe_ddec_spin_density
 _atom_site_pbe_ddec_sum_bond_order
 _atom_site_pbe_magmom
Zn  Zn0  1  0.37155940  0.49999105  0.49999694  1  1.338667  0  0.682245  0.869232  0  2.432831  0
Zn  Zn1  1  0.62843974  0.50000780  0.50000275  1  1.317766  0  0.682257  0.86922  0  2.432932  0
H  H2  1  0.59599511  0.67356643  0.94841442  1  0.086693  0  0.104443  0.092838  0  0.986516  0
H  H3  1  0.40400685  0.32643410  0.05158651  1  0.086711  0  0.104462  0.092884  0  0.986506  0
H  H4  1  0.38024848  0.66143851  0.05147267  1  0.086789  0  0.104101  0.091999  0  0.98758  0
H  H5  1  0.61975254  0.33856117  0.94852825  1  0.086789  0  0.104087  0.092001  0  0.98753  0
H  H6  1  0.71727703  0.51234529  0.05091403  1  0.076992  0  0.103073  0.091097  0  0.988787  0
H  H7  1  0.28272398  0.48765439  0.94908628  1  0.077008  0  0.103057  0.091068  0  0.988821  0
C  C8  1  0.50000798  0.84057160  0.49999878  1  0.098871  0  -0.013068  -0.139033  0  3.859531  0
C  C9  1  0.49999583  0.05668798  0.50000072  1  -0.347325  0  -0.015571  0.020065  0  4.251561  0
C  C10  1  0.43329650  0.58972364  0.02769461  1  -0.050031  0  -0.067165  -0.074145  0  3.627572  0
C  C11  1  0.56670452  0.41027688  0.97230569  1  -0.050033  0  -0.067196  -0.074193  0  3.6276  0
C  C12  1  0.55349387  0.59647730  0.97226702  1  -0.023956  0  -0.066502  -0.073931  0  3.624676  0
C  C13  1  0.44650714  0.40352322  0.02773328  1  -0.024075  0  -0.066526  -0.074044  0  3.624711  0
C  C14  1  0.50051134  0.50016460  0.75084409  1  0.118945  0  -0.058408  -0.204893  0  3.999495  0
C  C15  1  0.49948968  0.49983676  0.24915559  1  0.118963  0  -0.058407  -0.204866  0  3.999416  0
C  C16  1  0.37913769  0.49315268  0.97246961  1  -0.027795  0  -0.070233  -0.079835  0  3.636384  0
C  C17  1  0.62086333  0.50684785  0.02753007  1  -0.027798  0  -0.070229  -0.079881  0  3.63645  0
C  C18  1  0.49898622  0.49984702  0.91449356  1  0.076296  0  0.007533  0.122268  0  3.795147  0
C  C19  1  0.49999116  0.15942892  0.50000090  1  0.098846  0  -0.013071  -0.13897  0  3.859547  0
C  C20  1  0.50101480  0.50015351  0.08550612  1  0.076316  0  0.007532  0.122305  0  3.79521  0
C  C21  1  0.49995274  0.50003395  0.82660895  1  -0.325526  0  -0.030214  -0.044922  0  4.091079  0
C  C22  1  0.50004828  0.49996657  0.17339012  1  -0.325537  0  -0.030215  -0.044955  0  4.09105  0
C  C23  1  0.93569325  0.50000197  0.50000461  1  0.941889  0  0.305491  0.295484  0  3.903512  0
C  C24  1  0.06430683  0.49999687  0.49999507  1  1.105639  0  0.30558  0.295638  0  3.903678  0
C  C25  1  0.50000454  0.71930154  0.50000405  1  1.725784  0  0.222696  0.663948  0  4.235276  0
C  C26  1  0.49999554  0.28069815  0.49999626  1  1.725775  0  0.222738  0.663967  0  4.235199  0
C  C27  1  0.50035090  0.50009684  0.66136222  1  1.588664  0  0.220424  0.677919  0  4.222415  0
C  C28  1  0.49965106  0.49990369  0.33863746  1  1.588662  0  0.220446  0.677951  0  4.222502  0
C  C29  1  0.50000331  0.94331255  0.49999896  1  -0.170331  0  -0.015562  0.020185  0  4.251531  0
N  N30  1  0.82649746  0.50000877  0.50001196  1  -0.977567  0  -0.166683  -0.130441  0  2.940376  0
N  N31  1  0.17349510  0.49999092  0.49998710  1  -0.97752  0  -0.166778  -0.13053  0  2.940492  0
O  O32  1  0.39259571  0.67181652  0.50003489  1  -1.132662  0  -0.312221  -0.540074  0  2.243826  0
O  O33  1  0.60740437  0.32818233  0.49996666  1  -1.132658  0  -0.312199  -0.540044  0  2.243853  0
O  O34  1  0.60738955  0.67182870  0.49997730  1  -1.133027  0  -0.312043  -0.53985  0  2.244221  0
O  O35  1  0.39260959  0.32817098  0.50002301  1  -1.133035  0  -0.312105  -0.539919  0  2.244124  0
O  O36  1  0.39295237  0.50005685  0.62563088  1  -1.139806  0  -0.318775  -0.548828  0  2.256197  0
O  O37  1  0.60704771  0.49994367  0.37436880  1  -1.139831  0  -0.318789  -0.548846  0  2.25623  0
O  O38  1  0.60746145  0.50004971  0.62562647  1  -1.141791  0  -0.319105  -0.548928  0  2.256787  0
O  O39  1  0.39253863  0.49995165  0.37437321  1  -1.141759  0  -0.3191  -0.548944  0  2.256819  0
