# generated using pymatgen
data_GdH2(C2O3)2
_symmetry_space_group_name_H-M   'P 1'
_cell_length_a   6.81139399
_cell_length_b   6.95116734
_cell_length_c   7.42061991
_cell_angle_alpha   86.44161122
_cell_angle_beta   64.39681366
_cell_angle_gamma   67.77488227
_symmetry_Int_Tables_number   1
_chemical_formula_structural   GdH2(C2O3)2
_chemical_formula_sum   'Gd2 H4 C8 O12'
_cell_volume   291.13468286
_cell_formula_units_Z   2
loop_
 _symmetry_equiv_pos_site_id
 _symmetry_equiv_pos_as_xyz
  1  'x, y, z'
loop_
 _atom_site_type_symbol
 _atom_site_label
 _atom_site_symmetry_multiplicity
 _atom_site_fract_x
 _atom_site_fract_y
 _atom_site_fract_z
 _atom_site_occupancy
 _atom_site_hle17_bader_spin_density
 _atom_site_hle17_ddec_charge
 _atom_site_hle17_ddec_spin_density
 _atom_site_hle17_ddec_sum_bond_order
 _atom_site_hle17_magmom
 _atom_site_hse06_10hf_bader_spin_density
 _atom_site_hse06_10hf_ddec_charge
 _atom_site_hse06_10hf_ddec_spin_density
 _atom_site_hse06_10hf_ddec_sum_bond_order
 _atom_site_hse06_10hf_magmom
 _atom_site_hse06_bader_spin_density
 _atom_site_hse06_ddec_charge
 _atom_site_hse06_ddec_spin_density
 _atom_site_hse06_ddec_sum_bond_order
 _atom_site_hse06_magmom
 _atom_site_pbe_bader_spin_density
 _atom_site_pbe_cm5_charge
 _atom_site_pbe_ddec_charge
 _atom_site_pbe_ddec_spin_density
 _atom_site_pbe_ddec_sum_bond_order
 _atom_site_pbe_magmom
Gd  Gd0  1  0.30038773  0.32601256  0.05589319  1  0  2.157137  0  1.763551  0  0  2.067793  0  2.107835  0  0  2.12351  0  2.055534  0  0  1.504204  2.026174  0  2.147904  0
Gd  Gd1  1  0.69961235  0.67398663  0.94410754  1  0  2.157161  0  1.763503  0  0  2.067806  0  2.107812  0  0  2.123532  0  2.055497  0  0  1.50421  2.026158  0  2.147942  0
H  H2  1  0.09836001  0.96385658  0.71225241  1  0  0.188467  0  0.895041  0  0  0.195554  0  0.952244  0  0  0.20084  0  0.948412  0  0  0.131936  0.19177  0  0.955172  0
H  H3  1  0.90164077  0.03614103  0.28774948  1  0  0.188473  0  0.895001  0  0  0.195543  0  0.952237  0  0  0.200829  0  0.948404  0  0  0.131928  0.19176  0  0.955163  0
H  H4  1  0.40411581  0.83106166  0.55301541  1  0  0.192195  0  0.917364  0  0  0.201665  0  0.970956  0  0  0.206688  0  0.96797  0  0  0.13218  0.198104  0  0.973214  0
H  H5  1  0.59588497  0.16893596  0.44698514  1  0  0.192208  0  0.917341  0  0  0.201659  0  0.970965  0  0  0.206681  0  0.967981  0  0  0.132181  0.198096  0  0.973225  0
C  C6  1  0.32571481  0.01009810  0.81610603  1  0  0.753382  0  3.805704  0  0  0.699858  0  4.122752  0  0  0.734634  0  4.113511  0  0  0.216033  0.676339  0  4.127851  0
C  C7  1  0.67428527  0.98990109  0.18389335  1  0  0.753348  0  3.805752  0  0  0.699835  0  4.122786  0  0  0.734607  0  4.113547  0  0  0.216025  0.676307  0  4.127894  0
C  C8  1  0.27004788  0.87214910  0.71176035  1  0  -0.450416  0  3.576659  0  0  -0.478258  0  3.801836  0  0  -0.490535  0  3.800758  0  0  -0.149936  -0.470064  0  3.802712  0
C  C9  1  0.72995290  0.12784852  0.28824019  1  0  -0.450432  0  3.576572  0  0  -0.478246  0  3.801809  0  0  -0.490522  0  3.800733  0  0  -0.149937  -0.470051  0  3.802687  0
C  C10  1  0.02524097  0.38623096  0.52805120  1  0  0.570391  0  3.895591  0  0  0.528167  0  4.197872  0  0  0.558725  0  4.188293  0  0  0.22336  0.507426  0  4.203541  0
C  C11  1  0.97476142  0.61376667  0.47194466  1  0  0.570469  0  3.895415  0  0  0.52822  0  4.197711  0  0  0.558778  0  4.188128  0  0  0.223269  0.50747  0  4.203389  0
C  C12  1  0.27144964  0.67834964  0.81278944  1  0  0.818903  0  3.726236  0  0  0.775615  0  4.018188  0  0  0.811986  0  4.005747  0  0  0.243694  0.750829  0  4.025823  0
C  C13  1  0.72855208  0.32164953  0.18721199  1  0  0.819034  0  3.726142  0  0  0.775682  0  4.018186  0  0  0.812052  0  4.005742  0  0  0.243731  0.750898  0  4.025816  0
O  O14  1  0.92955755  0.36567541  0.71201487  1  0  -0.61913  0  2.087915  0  0  -0.583037  0  2.333413  0  0  -0.606767  0  2.326068  0  0  -0.355184  -0.566312  0  2.338104  0
O  O15  1  0.07044091  0.63432376  0.28798920  1  0  -0.619148  0  2.087956  0  0  -0.583036  0  2.333456  0  0  -0.606762  0  2.326107  0  0  -0.355152  -0.566314  0  2.338149  0
O  O16  1  0.35996415  0.16993716  0.74434592  1  0  -0.637714  0  1.984638  0  0  -0.595074  0  2.221051  0  0  -0.619904  0  2.212657  0  0  -0.343832  -0.577743  0  2.226448  0
O  O17  1  0.64003454  0.83006517  0.25565114  1  0  -0.637694  0  1.984655  0  0  -0.59507  0  2.221089  0  0  -0.619902  0  2.212701  0  0  -0.343842  -0.577735  0  2.226489  0
O  O18  1  0.32758233  0.96579673  0.98838713  1  0  -0.793853  0  2.035137  0  0  -0.75132  0  2.289369  0  0  -0.777842  0  2.27891  0  0  -0.419224  -0.732168  0  2.295701  0
O  O19  1  0.67242194  0.03420402  0.01161050  1  0  -0.793841  0  2.035123  0  0  -0.751281  0  2.2893  0  0  -0.777819  0  2.278883  0  0  -0.419205  -0.732124  0  2.295633  0
O  O20  1  0.09960944  0.62068398  0.87518512  1  0  -0.742692  0  2.089389  0  0  -0.703941  0  2.34289  0  0  -0.731341  0  2.334594  0  0  -0.38026  -0.684691  0  2.348164  0
O  O21  1  0.90039296  0.37931364  0.12481477  1  0  -0.742726  0  2.089405  0  0  -0.703934  0  2.342918  0  0  -0.731336  0  2.334625  0  0  -0.380236  -0.684688  0  2.34819  0
O  O22  1  0.15907724  0.23912162  0.38315458  1  0  -0.648135  0  2.03076  0  0  -0.610531  0  2.272413  0  0  -0.63529  0  2.263898  0  0  -0.381661  -0.593048  0  2.277884  0
O  O23  1  0.84092122  0.76087756  0.61684814  1  0  -0.648225  0  2.030595  0  0  -0.61059  0  2.272219  0  0  -0.635351  0  2.263703  0  0  -0.381637  -0.593099  0  2.277695  0
O  O24  1  0.45397970  0.56676411  0.84049943  1  0  -0.788536  0  2.07505  0  0  -0.746507  0  2.324087  0  0  -0.774716  0  2.314355  0  0  -0.4213  -0.726615  0  2.330256  0
O  O25  1  0.54602133  0.43323663  0.15950353  1  0  -0.788625  0  2.07504  0  0  -0.74657  0  2.324099  0  0  -0.774777  0  2.314366  0  0  -0.421343  -0.72668  0  2.330268  0
