# generated using pymatgen
data_MnP2H6(CO3)2
_symmetry_space_group_name_H-M   'P 1'
_cell_length_a   5.46453303
_cell_length_b   7.69063354
_cell_length_c   8.06026575
_cell_angle_alpha   83.71976716
_cell_angle_beta   75.98256463
_cell_angle_gamma   80.28402328
_symmetry_Int_Tables_number   1
_chemical_formula_structural   MnP2H6(CO3)2
_chemical_formula_sum   'Mn2 P4 H12 C4 O12'
_cell_volume   323.10507729
_cell_formula_units_Z   2
loop_
 _symmetry_equiv_pos_site_id
 _symmetry_equiv_pos_as_xyz
  1  'x, y, z'
loop_
 _atom_site_type_symbol
 _atom_site_label
 _atom_site_symmetry_multiplicity
 _atom_site_fract_x
 _atom_site_fract_y
 _atom_site_fract_z
 _atom_site_occupancy
 _atom_site_hle17_ddec_charge
 _atom_site_hle17_ddec_spin_density
 _atom_site_hle17_ddec_sum_bond_order
 _atom_site_hle17_magmom
 _atom_site_hse06_10hf_ddec_charge
 _atom_site_hse06_10hf_ddec_spin_density
 _atom_site_hse06_10hf_ddec_sum_bond_order
 _atom_site_hse06_10hf_magmom
 _atom_site_hse06_ddec_charge
 _atom_site_hse06_ddec_spin_density
 _atom_site_hse06_ddec_sum_bond_order
 _atom_site_hse06_magmom
 _atom_site_pbe_cm5_charge
 _atom_site_pbe_ddec_charge
 _atom_site_pbe_ddec_spin_density
 _atom_site_pbe_ddec_sum_bond_order
 _atom_site_pbe_magmom
Mn  Mn0  1  0.20076257  0.79560470  0.99339379  1  1.38224  4.797426  1.568461  4.706  1.222305  4.732649  2.04811  4.58  1.277786  4.766029  1.977764  4.629  0.630708  1.177902  4.701061  2.099636  4.535
Mn  Mn1  1  0.79923818  0.20438582  0.00661880  1  1.382278  4.797404  1.568443  4.706  1.222299  4.732652  2.048098  4.58  1.277797  4.766027  1.977745  4.629  0.63069  1.17792  4.70106  2.099622  4.535
P  P2  1  0.36287839  0.40966504  0.77425960  1  1.558624  0.011458  4.653483  0.011  1.398781  0.018653  5.148717  0.015  1.44911  0.014292  5.111887  0.012  0.394004  1.362973  0.022796  5.17366  0.017
P  P3  1  0.63713169  0.59034387  0.22573451  1  1.558685  0.011457  4.653806  0.011  1.398866  0.018657  5.149096  0.015  1.449186  0.014292  5.112261  0.012  0.393997  1.363099  0.022798  5.174041  0.017
P  P4  1  0.24607104  0.08767664  0.25519497  1  1.53379  0.007699  4.690113  0.006  1.37245  0.014789  5.191026  0.01  1.422265  0.011197  5.153905  0.008  0.381822  1.337287  0.018163  5.216098  0.011
P  P5  1  0.75391888  0.91232049  0.74481248  1  1.533534  0.007709  4.690225  0.006  1.372211  0.014783  5.191236  0.01  1.422052  0.011197  5.1541  0.008  0.381726  1.337045  0.018161  5.216293  0.011
H  H6  1  0.21833483  0.47938650  0.51691811  1  0.139767  5.1e-05  0.931859  0.0  0.154715  0.000264  0.98639  0.0  0.157136  0.000151  0.985747  0.0  0.112443  0.1529  0.000385  0.987053  0.001
H  H7  1  0.78168687  0.52062106  0.48307669  1  0.139836  5.4e-05  0.931726  0.0  0.154834  0.000264  0.986283  0.0  0.157264  0.000151  0.985641  0.0  0.112455  0.153018  0.000385  0.98695  0.001
H  H8  1  0.47198152  0.30458124  0.49398055  1  0.129558  -0.000153  0.948113  0.0  0.144475  6e-06  1.005673  0.0  0.14609  -7e-05  1.00632  0.0  0.109896  0.143239  9e-05  1.005428  0.0
H  H9  1  0.52803559  0.69543032  0.50601706  1  0.129467  -0.000145  0.948119  0.0  0.144459  6e-06  1.005694  0.0  0.146074  -7e-05  1.006344  0.0  0.109867  0.143223  9e-05  1.005448  0.0
H  H10  1  0.29366015  0.13520391  0.81530132  1  0.436081  -0.000906  0.866931  0.0  0.401479  -0.000526  0.942928  0.001  0.412931  -0.000695  0.926557  0.001  0.317933  0.393439  -0.000362  0.954372  0.001
H  H11  1  0.70634266  0.86480371  0.18469539  1  0.436264  -0.000907  0.866841  0.0  0.401663  -0.000526  0.942698  0.001  0.413104  -0.000695  0.926342  0.001  0.317995  0.393624  -0.000362  0.95414  0.001
H  H12  1  0.26142134  0.98664449  0.54696333  1  0.136999  -0.000508  0.946882  0.0  0.149574  -0.000439  1.005553  0.0  0.152012  -0.000507  1.005243  0.0  0.108107  0.147728  -0.00036  1.006007  0.0
H  H13  1  0.73856508  0.01333277  0.45303698  1  0.136886  -0.000515  0.946844  0.0  0.149589  -0.000439  1.00543  0.0  0.152035  -0.000507  1.005115  0.0  0.108126  0.147742  -0.00036  1.005887  0.0
H  H14  1  0.17181020  0.82958880  0.43447783  1  0.135091  -0.000524  0.953709  0.0  0.150395  -0.000455  1.008665  0.0  0.152435  -0.000483  1.009005  0.0  0.112553  0.148848  -0.000418  1.008617  0.0
H  H15  1  0.82818156  0.17038969  0.56551029  1  0.134925  -0.000521  0.953525  0.0  0.150244  -0.000455  1.008599  0.0  0.152281  -0.000483  1.008947  0.0  0.112487  0.148699  -0.000418  1.008547  0.0
H  H16  1  0.02459190  0.35118638  0.22887597  1  0.433156  -0.000519  0.876887  0.0  0.399201  -0.000196  0.945187  0.0  0.410637  -0.000335  0.928889  0.0  0.316039  0.391232  -6.1e-05  0.956501  0.0
H  H17  1  0.97540021  0.64880946  0.77113746  1  0.433096  -0.000518  0.87693  0.0  0.399156  -0.000196  0.945207  0.0  0.410604  -0.000335  0.928891  0.0  0.316024  0.391172  -6.1e-05  0.956542  0.0
C  C18  1  0.40801798  0.43592878  0.54371649  1  -0.404528  0.00297  3.716399  0.003  -0.425969  0.003863  3.965541  0.004  -0.433916  0.002913  3.974053  0.003  -0.164625  -0.420396  0.004875  3.960004  0.004
C  C19  1  0.59201093  0.56408929  0.45626851  1  -0.40438  0.002929  3.716208  0.003  -0.42627  0.003864  3.965712  0.004  -0.434249  0.00292  3.97427  0.003  -0.164664  -0.42068  0.004874  3.960148  0.004
C  C20  1  0.14111406  0.96987845  0.46013645  1  -0.407186  0.001588  3.687166  0.002  -0.426253  0.002399  3.932924  0.003  -0.434555  0.00164  3.941011  0.002  -0.164963  -0.420465  0.003216  3.927748  0.003
C  C21  1  0.85887396  0.03010011  0.53986097  1  -0.406671  0.001604  3.68663  0.002  -0.425943  0.002398  3.932423  0.003  -0.434267  0.001642  3.940528  0.002  -0.16487  -0.420152  0.003215  3.927241  0.003
O  O22  1  0.20555216  0.57968442  0.84813191  1  -0.870589  0.034284  2.028209  0.018  -0.774839  0.042519  2.308759  0.022  -0.805767  0.038409  2.284957  0.019  -0.348403  -0.751819  0.046344  2.324555  0.025
O  O23  1  0.79446144  0.42032581  0.15186395  1  -0.870712  0.034286  2.028237  0.018  -0.774784  0.04251  2.308565  0.022  -0.80574  0.038397  2.284849  0.019  -0.348424  -0.751877  0.04634  2.324446  0.025
O  O24  1  0.61067971  0.34495911  0.82841783  1  -0.876673  0.039784  1.981107  0.023  -0.788313  0.048395  2.276716  0.027  -0.818835  0.042939  2.251732  0.023  -0.357938  -0.76524  0.053592  2.293286  0.032
O  O25  1  0.38932770  0.65504455  0.17158226  1  -0.876708  0.0398  1.981284  0.023  -0.788406  0.048401  2.27694  0.027  -0.818932  0.042949  2.251971  0.023  -0.35794  -0.765334  0.053601  2.293509  0.032
O  O26  1  0.18291522  0.25753495  0.82565978  1  -0.783588  0.020777  2.083105  0.011  -0.699274  0.028594  2.339809  0.017  -0.724025  0.025733  2.312428  0.015  -0.36934  -0.681248  0.031221  2.358595  0.019
O  O27  1  0.81708354  0.74247399  0.17433621  1  -0.783765  0.020789  2.083442  0.011  -0.699344  0.028599  2.339968  0.017  -0.724073  0.025736  2.312595  0.015  -0.369362  -0.681315  0.031227  2.358745  0.019
O  O28  1  0.09957302  0.03816039  0.13106576  1  -0.912954  0.055374  2.060533  0.029  -0.812522  0.068267  2.359544  0.037  -0.845818  0.0624  2.336285  0.033  -0.354069  -0.787187  0.073637  2.374286  0.042
O  O29  1  0.90042628  0.96184591  0.86893044  1  -0.912988  0.055368  2.060594  0.029  -0.812449  0.068255  2.359395  0.037  -0.845852  0.062396  2.336325  0.033  -0.354077  -0.787166  0.073627  2.374259  0.042
O  O30  1  0.17236707  0.29133017  0.28244035  1  -0.745454  0.00075  2.022079  0.001  -0.671426  0.001864  2.256524  0.003  -0.693403  0.001145  2.232747  0.002  -0.375292  -0.655945  0.002597  2.27268  0.003
O  O31  1  0.82760677  0.70866317  0.71758882  1  -0.745314  0.000747  2.022136  0.001  -0.671287  0.001866  2.256558  0.003  -0.693299  0.001146  2.232793  0.002  -0.375228  -0.655801  0.002598  2.272734  0.003
O  O32  1  0.53831761  0.05047055  0.19881932  1  -0.884417  0.030461  2.016995  0.016  -0.794865  0.039358  2.300961  0.022  -0.824104  0.035242  2.27673  0.019  -0.348844  -0.773282  0.043224  2.317195  0.025
O  O33  1  0.46167227  0.94953581  0.80118216  1  -0.884351  0.030443  2.017112  0.016  -0.794751  0.039353  2.300977  0.022  -0.823962  0.035235  2.276713  0.019  -0.348833  -0.773181  0.043219  2.317243  0.025
