# generated using pymatgen
data_AlH5C4N2O5
_symmetry_space_group_name_H-M   'P 1'
_cell_length_a   6.70685485
_cell_length_b   8.78181117
_cell_length_c   8.78145542
_cell_angle_alpha   58.47978063
_cell_angle_beta   75.04912697
_cell_angle_gamma   75.05037598
_symmetry_Int_Tables_number   1
_chemical_formula_structural   AlH5C4N2O5
_chemical_formula_sum   'Al2 H10 C8 N4 O10'
_cell_volume   421.19114971
_cell_formula_units_Z   2
loop_
 _symmetry_equiv_pos_site_id
 _symmetry_equiv_pos_as_xyz
  1  'x, y, z'
loop_
 _atom_site_type_symbol
 _atom_site_label
 _atom_site_symmetry_multiplicity
 _atom_site_fract_x
 _atom_site_fract_y
 _atom_site_fract_z
 _atom_site_occupancy
 _atom_site_pbe_bader_charge
 _atom_site_pbe_bader_spin_density
 _atom_site_pbe_cm5_charge
 _atom_site_pbe_ddec_charge
 _atom_site_pbe_ddec_spin_density
 _atom_site_pbe_ddec_sum_bond_order
 _atom_site_pbe_magmom
Al  Al0  1  0.49997077  0.49999010  0.50001764  1  2.506586  0  0.395898  1.646878  0  2.585055  0
Al  Al1  1  0.00000739  0.50000487  0.50001923  1  2.506513  0  0.395785  1.646378  0  2.586028  0
H  H2  1  0.75000414  0.29162911  0.70835230  1  0.610345  0  0.358839  0.43834  0  0.835917  0
H  H3  1  0.25000705  0.70833414  0.29164121  1  0.610789  0  0.358957  0.438517  0  0.835831  0
H  H4  1  0.74668783  0.15439235  0.46287293  1  0.484299  0  0.303235  0.303183  0  0.991321  0
H  H5  1  0.91066374  0.99416184  0.40957675  1  0.45491  0  0.299394  0.292362  0  0.981132  0
H  H6  1  0.25332125  0.84559128  0.53712176  1  0.483719  0  0.302993  0.30299  0  0.991386  0
H  H7  1  0.08930779  0.00584622  0.59045444  1  0.454565  0  0.299177  0.292305  0  0.980902  0
H  H8  1  0.24666433  0.46294149  0.15435838  1  0.483548  0  0.303278  0.303197  0  0.99151  0
H  H9  1  0.41063820  0.40951429  0.99422588  1  0.454881  0  0.299411  0.292475  0  0.980943  0
H  H10  1  0.75333421  0.53705272  0.84564694  1  0.483605  0  0.303363  0.303373  0  0.991332  0
H  H11  1  0.58935404  0.59046238  0.00577672  1  0.455014  0  0.299456  0.292414  0  0.98136  0
C  C12  1  0.15856120  0.46163758  0.80178283  1  1.490505  0  0.254482  0.600566  0  4.087415  0
C  C13  1  0.34144338  0.19821862  0.53832597  1  1.491044  0  0.254444  0.600807  0  4.089051  0
C  C14  1  0.84142028  0.53837703  0.19818674  1  1.491339  0  0.254481  0.601056  0  4.089673  0
C  C15  1  0.65858305  0.80180045  0.46165899  1  1.491049  0  0.254529  0.600946  0  4.088828  0
C  C16  1  0.60399833  0.96429523  0.48262169  1  0.499645  0  0.078217  0.048228  0  4.017085  0
C  C17  1  0.39605812  0.03575245  0.51734250  1  0.468349  0  0.078134  0.047828  0  4.016899  0
C  C18  1  0.10396627  0.48264820  0.96434176  1  0.468926  0  0.078162  0.047938  0  4.015531  0
C  C19  1  0.89593842  0.51739057  0.03572051  1  0.500277  0  0.078187  0.047924  0  4.017206  0
N  N20  1  0.77461699  0.02963050  0.47492419  1  -1.234577  0  -0.600474  -0.58774  0  3.411354  0
N  N21  1  0.22537739  0.97041379  0.52501599  1  -1.233487  0  -0.60021  -0.587832  0  3.41014  0
N  N22  1  0.27464126  0.47499011  0.02960305  1  -1.234191  0  -0.600527  -0.587818  0  3.411438  0
N  N23  1  0.72535351  0.52506922  0.97036767  1  -1.234228  0  -0.600608  -0.587851  0  3.411959  0
O  O24  1  0.35310062  0.44141027  0.73964216  1  -1.262956  0  -0.24865  -0.602716  0  2.341575  0
O  O25  1  0.14692204  0.26038228  0.55853039  1  -1.263121  0  -0.24872  -0.602714  0  2.341283  0
O  O26  1  0.98891438  0.53482715  0.26914297  1  -1.266015  0  -0.239303  -0.600473  0  2.406428  0
O  O27  1  0.51107197  0.73085445  0.46522989  1  -1.265733  0  -0.239192  -0.600367  0  2.406333  0
O  O28  1  0.64695423  0.55858161  0.26034896  1  -1.263618  0  -0.248833  -0.602898  0  2.342064  0
O  O29  1  0.85306322  0.73963439  0.44146364  1  -1.263  0  -0.248819  -0.602816  0  2.341846  0
O  O30  1  0.01101264  0.46517557  0.73085773  1  -1.265821  0  -0.239314  -0.600397  0  2.406476  0
O  O31  1  0.48894147  0.26914751  0.53478296  1  -1.266288  0  -0.239306  -0.60049  0  2.406903  0
O  O32  1  0.75002686  0.40445706  0.59551960  1  -1.418152  0  -0.448186  -0.991658  0  2.192842  0
O  O33  1  0.24997655  0.59554203  0.40449028  1  -1.418724  0  -0.448282  -0.991933  0  2.193009  0
