# generated using pymatgen
data_ErH9C5(NO4)2
_symmetry_space_group_name_H-M   'P 1'
_cell_length_a   6.53093845
_cell_length_b   6.66284354
_cell_length_c   6.66250842
_cell_angle_alpha   64.41887623
_cell_angle_beta   73.16132953
_cell_angle_gamma   73.16219392
_symmetry_Int_Tables_number   1
_chemical_formula_structural   ErH9C5(NO4)2
_chemical_formula_sum   'Er1 H9 C5 N2 O8'
_cell_volume   245.69504961
_cell_formula_units_Z   1
loop_
 _symmetry_equiv_pos_site_id
 _symmetry_equiv_pos_as_xyz
  1  'x, y, z'
loop_
 _atom_site_type_symbol
 _atom_site_label
 _atom_site_symmetry_multiplicity
 _atom_site_fract_x
 _atom_site_fract_y
 _atom_site_fract_z
 _atom_site_occupancy
 _atom_site_hle17_bader_spin_density
 _atom_site_hle17_ddec_charge
 _atom_site_hle17_ddec_spin_density
 _atom_site_hle17_ddec_sum_bond_order
 _atom_site_hle17_magmom
 _atom_site_hse06_10hf_bader_spin_density
 _atom_site_hse06_10hf_ddec_charge
 _atom_site_hse06_10hf_ddec_spin_density
 _atom_site_hse06_10hf_ddec_sum_bond_order
 _atom_site_hse06_10hf_magmom
 _atom_site_hse06_bader_spin_density
 _atom_site_hse06_ddec_charge
 _atom_site_hse06_ddec_spin_density
 _atom_site_hse06_ddec_sum_bond_order
 _atom_site_hse06_magmom
 _atom_site_pbe_bader_spin_density
 _atom_site_pbe_cm5_charge
 _atom_site_pbe_ddec_charge
 _atom_site_pbe_ddec_spin_density
 _atom_site_pbe_ddec_sum_bond_order
 _atom_site_pbe_magmom
Er  Er0  1  0.00000824  0.99612015  0.00387588  1  0  2.22066  0  1.644037  0  0  2.063398  0  2.132281  0  0  2.207279  0  1.916108  0  0  1.474625  2.027045  0  2.160006  0
H  H1  1  0.87050927  0.46941245  0.15678661  1  0  0.004494  0  0.937398  0  0  0.012064  0  1.013215  0  0  0.013406  0  1.007241  0  0  0.113893  0.010901  0  1.01753  0
H  H2  1  0.12945395  0.84323069  0.53064414  1  0  0.004466  0  0.937575  0  0  0.012086  0  1.013325  0  0  0.013426  0  1.00734  0  0  0.113948  0.010924  0  1.017638  0
H  H3  1  0.50003619  0.08063717  0.91930996  1  0  0.022607  0  0.963424  0  0  0.029881  0  1.033369  0  0  0.030636  0  1.028393  0  0  0.120105  0.028991  0  1.037405  0
H  H4  1  0.17536410  0.44760941  0.53640524  1  0  0.015564  0  0.925445  0  0  0.023697  0  1.000744  0  0  0.024834  0  0.995903  0  0  0.127272  0.022544  0  1.00462  0
H  H5  1  0.82462464  0.46350647  0.55246279  1  0  0.015412  0  0.925749  0  0  0.023589  0  1.000993  0  0  0.024717  0  0.99616  0  0  0.127194  0.022432  0  1.004877  0
H  H6  1  0.59869736  0.20076303  0.36098694  1  0  0.355438  0  0.884976  0  0  0.332601  0  0.951312  0  0  0.342336  0  0.942736  0  0  0.310834  0.325652  0  0.957483  0
H  H7  1  0.40133070  0.63899648  0.79922578  1  0  0.355403  0  0.885548  0  0  0.332562  0  0.951852  0  0  0.3423  0  0.943267  0  0  0.310908  0.325612  0  0.958031  0
H  H8  1  0.46971648  0.49366532  0.26163716  1  0  0.344277  0  0.889542  0  0  0.322486  0  0.957293  0  0  0.331196  0  0.949575  0  0  0.310052  0.316534  0  0.962041  0
H  H9  1  0.53030774  0.73826189  0.50634822  1  0  0.343871  0  0.889864  0  0  0.322264  0  0.957446  0  0  0.330928  0  0.949794  0  0  0.310028  0.316316  0  0.96218  0
C  C10  1  0.03812775  0.46749141  0.05490093  1  0  0.635064  0  3.879371  0  0  0.565065  0  4.187945  0  0  0.599565  0  4.183741  0  0  0.157763  0.54205  0  4.194399  0
C  C11  1  0.96187692  0.94510376  0.53253460  1  0  0.635388  0  3.878902  0  0  0.565318  0  4.187511  0  0  0.599837  0  4.183288  0  0  0.157827  0.542307  0  4.19397  0
C  C12  1  0.50000793  0.92612156  0.07386695  1  0  0.630037  0  3.84251  0  0  0.558963  0  4.147701  0  0  0.595052  0  4.140925  0  0  0.152866  0.534425  0  4.15688  0
C  C13  1  0.29510715  0.29244089  0.53450507  1  0  0.578031  0  3.814481  0  0  0.506292  0  4.112825  0  0  0.53656  0  4.113274  0  0  0.192258  0.485965  0  4.114549  0
C  C14  1  0.70488783  0.46546195  0.70759446  1  0  0.57824  0  3.814981  0  0  0.506439  0  4.113341  0  0  0.53672  0  4.113768  0  0  0.192361  0.486134  0  4.115057  0
N  N15  1  0.46810675  0.32940626  0.37173981  1  0  -0.602774  0  3.114691  0  0  -0.560662  0  3.361895  0  0  -0.581728  0  3.352319  0  0  -0.547823  -0.545593  0  3.366467  0
N  N16  1  0.53189778  0.62821060  0.67063051  1  0  -0.602358  0  3.11516  0  0  -0.560511  0  3.362284  0  0  -0.581525  0  3.352772  0  0  -0.547976  -0.545439  0  3.366831  0
O  O17  1  0.12964386  0.30615373  0.99021990  1  0  -0.680637  0  2.119474  0  0  -0.622654  0  2.377395  0  0  -0.661262  0  2.367531  0  0  -0.369246  -0.603478  0  2.380387  0
O  O18  1  0.87034086  0.00985071  0.69382488  1  0  -0.680797  0  2.119514  0  0  -0.622836  0  2.377567  0  0  -0.661442  0  2.367669  0  0  -0.369258  -0.603648  0  2.380529  0
O  O19  1  0.12529100  0.63422960  0.01122556  1  0  -0.722369  0  2.122341  0  0  -0.660394  0  2.388928  0  0  -0.700969  0  2.375167  0  0  -0.405582  -0.641601  0  2.394899  0
O  O20  1  0.87470308  0.98873975  0.36579406  1  0  -0.722477  0  2.121742  0  0  -0.660482  0  2.388358  0  0  -0.70107  0  2.374595  0  0  -0.405635  -0.641689  0  2.394324  0
O  O21  1  0.33187644  0.83552233  0.15191297  1  0  -0.699863  0  2.06487  0  0  -0.640999  0  2.327133  0  0  -0.679153  0  2.313412  0  0  -0.379493  -0.622346  0  2.333983  0
O  O22  1  0.66810609  0.84807364  0.16451540  1  0  -0.699777  0  2.064825  0  0  -0.640924  0  2.327074  0  0  -0.679068  0  2.313348  0  0  -0.379407  -0.622273  0  2.333919  0
O  O23  1  0.26270979  0.10000480  0.67843042  1  0  -0.663939  0  2.103897  0  0  -0.60363  0  2.366145  0  0  -0.641289  0  2.355275  0  0  -0.383785  -0.58589  0  2.370433  0
O  O24  1  0.73727527  0.32159311  0.90002342  1  0  -0.663962  0  2.104249  0  0  -0.603614  0  2.366476  0  0  -0.641285  0  2.355631  0  0  -0.383727  -0.585874  0  2.370722  0
