# generated using pymatgen
data_BaH3C7NO5
_symmetry_space_group_name_H-M   'P 1'
_cell_length_a   4.40015346
_cell_length_b   9.73461569
_cell_length_c   10.44285188
_cell_angle_alpha   90.32140854
_cell_angle_beta   103.95784644
_cell_angle_gamma   99.80649878
_symmetry_Int_Tables_number   1
_chemical_formula_structural   BaH3C7NO5
_chemical_formula_sum   'Ba2 H6 C14 N2 O10'
_cell_volume   427.24661962
_cell_formula_units_Z   2
loop_
 _symmetry_equiv_pos_site_id
 _symmetry_equiv_pos_as_xyz
  1  'x, y, z'
loop_
 _atom_site_type_symbol
 _atom_site_label
 _atom_site_symmetry_multiplicity
 _atom_site_fract_x
 _atom_site_fract_y
 _atom_site_fract_z
 _atom_site_occupancy
 _atom_site_hle17_bader_spin_density
 _atom_site_hle17_ddec_charge
 _atom_site_hle17_ddec_spin_density
 _atom_site_hle17_ddec_sum_bond_order
 _atom_site_hle17_magmom
 _atom_site_hse06_10hf_bader_spin_density
 _atom_site_hse06_10hf_ddec_charge
 _atom_site_hse06_10hf_ddec_spin_density
 _atom_site_hse06_10hf_ddec_sum_bond_order
 _atom_site_hse06_10hf_magmom
 _atom_site_hse06_bader_spin_density
 _atom_site_hse06_ddec_charge
 _atom_site_hse06_ddec_spin_density
 _atom_site_hse06_ddec_sum_bond_order
 _atom_site_hse06_magmom
 _atom_site_pbe_bader_spin_density
 _atom_site_pbe_cm5_charge
 _atom_site_pbe_ddec_charge
 _atom_site_pbe_ddec_spin_density
 _atom_site_pbe_ddec_sum_bond_order
 _atom_site_pbe_magmom
Ba  Ba0  1  0.04839356  0.25579652  0.07572878  1  0  1.652194  0  1.143316  0  0  1.503917  0  1.543067  0  0  1.546064  0  1.498069  0  0  0.976469  1.471221  0  1.57751  0
Ba  Ba1  1  0.95155929  0.74417950  0.92430121  1  0  1.65198  0  1.143848  0  0  1.503707  0  1.543638  0  0  1.545853  0  1.49863  0  0  0.976537  1.471034  0  1.578089  0
H  H2  1  0.69212915  0.98938808  0.45944449  1  0  0.107693  0  0.966801  0  0  0.118541  0  1.02641  0  0  0.121185  0  1.026279  0  0  0.111113  0.116678  0  1.026891  0
H  H3  1  0.30777379  0.01059379  0.54055420  1  0  0.107864  0  0.966485  0  0  0.118606  0  1.026223  0  0  0.12125  0  1.026096  0  0  0.111106  0.116745  0  1.026705  0
H  H4  1  0.87188380  0.78884118  0.59161476  1  0  0.109924  0  0.93997  0  0  0.122184  0  0.99598  0  0  0.126605  0  0.99186  0  0  0.123604  0.118928  0  0.999012  0
H  H5  1  0.12809029  0.21117720  0.40838670  1  0  0.109893  0  0.940068  0  0  0.122166  0  0.996049  0  0  0.12657  0  0.991962  0  0  0.123608  0.118915  0  0.999066  0
H  H6  1  0.87191229  0.56729133  0.46645502  1  0  0.109398  0  0.963021  0  0  0.120263  0  1.020533  0  0  0.123717  0  1.018767  0  0  0.113561  0.117943  0  1.021827  0
H  H7  1  0.12809950  0.43270199  0.53355273  1  0  0.109384  0  0.963142  0  0  0.120351  0  1.020522  0  0  0.123807  0  1.018752  0  0  0.113582  0.118033  0  1.021815  0
C  C8  1  0.46348128  0.99252909  0.19560677  1  0  0.656556  0  3.972637  0  0  0.608543  0  4.270065  0  0  0.642683  0  4.258966  0  0  0.231437  0.58558  0  4.276116  0
C  C9  1  0.53647075  0.00746328  0.80438954  1  0  0.656587  0  3.972405  0  0  0.608487  0  4.269952  0  0  0.642651  0  4.258825  0  0  0.231315  0.585514  0  4.276015  0
C  C10  1  0.60373220  0.87899820  0.27487759  1  0  0.035107  0  3.596135  0  0  0.029147  0  3.847844  0  0  0.034077  0  3.859045  0  0  0.12698  0.025898  0  3.840712  0
C  C11  1  0.39625595  0.12101375  0.72510923  1  0  0.034597  0  3.59637  0  0  0.028717  0  3.847959  0  0  0.033636  0  3.859167  0  0  0.126996  0.025471  0  3.840829  0
C  C12  1  0.69697606  0.89054130  0.41182782  1  0  -0.122701  0  3.758095  0  0  -0.145331  0  4.014672  0  0  -0.150165  0  4.033048  0  0  -0.079932  -0.143428  0  4.003271  0
C  C13  1  0.30293553  0.10945239  0.58815677  1  0  -0.122718  0  3.758021  0  0  -0.145266  0  4.014584  0  0  -0.1501  0  4.032965  0  0  -0.079844  -0.143366  0  4.003182  0
C  C14  1  0.79522549  0.77956798  0.48429661  1  0  -0.018665  0  3.739329  0  0  -0.044809  0  4.004102  0  0  -0.039516  0  4.0171  0  0  -0.069094  -0.047628  0  3.995646  0
C  C15  1  0.20468682  0.22042155  0.51568779  1  0  -0.018723  0  3.739476  0  0  -0.044885  0  4.004245  0  0  -0.039586  0  4.017224  0  0  -0.069249  -0.047697  0  3.99578  0
C  C16  1  0.80211277  0.65803284  0.41519750  1  0  -0.108502  0  3.741675  0  0  -0.130456  0  3.996536  0  0  -0.134724  0  4.013386  0  0  -0.073521  -0.128891  0  3.985863  0
C  C17  1  0.19785100  0.34195329  0.58480032  1  0  -0.108573  0  3.74186  0  0  -0.130481  0  3.996807  0  0  -0.134749  0  4.013651  0  0  -0.073537  -0.128923  0  3.986136  0
C  C18  1  0.77318593  0.52696457  0.20064038  1  0  0.653984  0  3.975686  0  0  0.60595  0  4.274907  0  0  0.640014  0  4.263832  0  0  0.228532  0.582921  0  4.281134  0
C  C19  1  0.22698442  0.47305726  0.79936603  1  0  0.654011  0  3.975858  0  0  0.606226  0  4.274821  0  0  0.640292  0  4.263746  0  0  0.228532  0.583186  0  4.281054  0
C  C20  1  0.72536398  0.65008585  0.27795001  1  0  0.035237  0  3.589209  0  0  0.026563  0  3.845314  0  0  0.031872  0  3.856009  0  0  0.128356  0.023159  0  3.838512  0
C  C21  1  0.27473620  0.34992166  0.72203953  1  0  0.035469  0  3.589146  0  0  0.026372  0  3.845702  0  0  0.031677  0  3.85641  0  0  0.128346  0.022981  0  3.838873  0
N  N22  1  0.62355246  0.75999438  0.20963071  1  0  0.26732  0  3.673423  0  0  0.306835  0  3.936049  0  0  0.309003  0  3.953688  0  0  -0.089552  0.30478  0  3.924798  0
N  N23  1  0.37648746  0.24001789  0.79037841  1  0  0.26755  0  3.673409  0  0  0.307157  0  3.936107  0  0  0.309327  0  3.953748  0  0  -0.089535  0.305098  0  3.924849  0
O  O24  1  0.18047833  0.96030797  0.12707656  1  0  -0.673999  0  1.981896  0  0  -0.625788  0  2.224209  0  0  -0.652159  0  2.216401  0  0  -0.341055  -0.606504  0  2.228893  0
O  O25  1  0.81948714  0.03966345  0.87292343  1  0  -0.674004  0  1.981866  0  0  -0.625757  0  2.224177  0  0  -0.652135  0  2.216359  0  0  -0.340991  -0.606462  0  2.228861  0
O  O26  1  0.63275975  0.11325277  0.21143362  1  0  -0.701812  0  1.970103  0  0  -0.645002  0  2.208006  0  0  -0.672251  0  2.198777  0  0  -0.359276  -0.625435  0  2.213993  0
O  O27  1  0.36709515  0.88676096  0.78853811  1  0  -0.701625  0  1.969764  0  0  -0.644815  0  2.207722  0  0  -0.672071  0  2.198475  0  0  -0.359153  -0.625248  0  2.213719  0
O  O28  1  0.62779696  0.40792477  0.21934871  1  0  -0.696869  0  1.947562  0  0  -0.639329  0  2.178331  0  0  -0.666148  0  2.169044  0  0  -0.357302  -0.620025  0  2.184322  0
O  O29  1  0.37237222  0.59211054  0.78067951  1  0  -0.696904  0  1.9477  0  0  -0.639387  0  2.178336  0  0  -0.666213  0  2.169053  0  0  -0.357374  -0.62008  0  2.184338  0
O  O30  1  0.97024828  0.55183518  0.12969178  1  0  -0.679072  0  1.982539  0  0  -0.63051  0  2.225889  0  0  -0.657054  0  2.217821  0  0  -0.343278  -0.61124  0  2.230883  0
O  O31  1  0.02992033  0.44816226  0.87030155  1  0  -0.679144  0  1.982827  0  0  -0.63063  0  2.226026  0  0  -0.657181  0  2.217981  0  0  -0.343193  -0.611357  0  2.231032  0
O  O32  1  0.54470023  0.75136021  0.07983342  1  0  -0.625691  0  1.880451  0  0  -0.580622  0  2.14374  0  0  -0.603094  0  2.139915  0  0  -0.327126  -0.563882  0  2.146903  0
O  O33  1  0.45525410  0.24863361  0.92017563  1  0  -0.625743  0  1.880232  0  0  -0.580663  0  2.143452  0  0  -0.603136  0  2.13964  0  0  -0.32706  -0.563919  0  2.146624  0
