# generated using pymatgen
data_LiH6C3SO6
_symmetry_space_group_name_H-M   'P 1'
_cell_length_a   6.11779246
_cell_length_b   7.16551858
_cell_length_c   8.21724144
_cell_angle_alpha   73.84475159
_cell_angle_beta   69.78555847
_cell_angle_gamma   67.12034981
_symmetry_Int_Tables_number   1
_chemical_formula_structural   LiH6C3SO6
_chemical_formula_sum   'Li2 H12 C6 S2 O12'
_cell_volume   307.09385839
_cell_formula_units_Z   2
loop_
 _symmetry_equiv_pos_site_id
 _symmetry_equiv_pos_as_xyz
  1  'x, y, z'
loop_
 _atom_site_type_symbol
 _atom_site_label
 _atom_site_symmetry_multiplicity
 _atom_site_fract_x
 _atom_site_fract_y
 _atom_site_fract_z
 _atom_site_occupancy
 _atom_site_hle17_bader_spin_density
 _atom_site_hle17_ddec_charge
 _atom_site_hle17_ddec_spin_density
 _atom_site_hle17_ddec_sum_bond_order
 _atom_site_hle17_magmom
 _atom_site_hse06_10hf_bader_spin_density
 _atom_site_hse06_10hf_ddec_charge
 _atom_site_hse06_10hf_ddec_spin_density
 _atom_site_hse06_10hf_ddec_sum_bond_order
 _atom_site_hse06_10hf_magmom
 _atom_site_hse06_bader_spin_density
 _atom_site_hse06_ddec_charge
 _atom_site_hse06_ddec_spin_density
 _atom_site_hse06_ddec_sum_bond_order
 _atom_site_hse06_magmom
 _atom_site_pbe_bader_spin_density
 _atom_site_pbe_cm5_charge
 _atom_site_pbe_ddec_charge
 _atom_site_pbe_ddec_spin_density
 _atom_site_pbe_ddec_sum_bond_order
 _atom_site_pbe_magmom
Li  Li0  1  0.80328580  0.18739659  0.89506390  1  0  0.873073  0  0.340255  0  0  0.83098  0  0.445025  0  0  0.840063  0  0.429623  0  0  0.452881  0.824318  0  0.456162  0
Li  Li1  1  0.19671497  0.81260183  0.10493577  1  0  0.873063  0  0.340279  0  0  0.830975  0  0.445039  0  0  0.840058  0  0.429638  0  0  0.452879  0.824312  0  0.456177  0
H  H2  1  0.82932346  0.39521835  0.57658922  1  0  0.426128  0  0.871803  0  0  0.398515  0  0.931045  0  0  0.407235  0  0.918188  0  0  0.298609  0.392412  0  0.94004  0
H  H3  1  0.17068073  0.60478007  0.42340710  1  0  0.426154  0  0.871773  0  0  0.39854  0  0.931018  0  0  0.407262  0  0.918156  0  0  0.298625  0.392436  0  0.940012  0
H  H4  1  0.91332598  0.49145183  0.68460754  1  0  0.424447  0  0.872735  0  0  0.397241  0  0.930311  0  0  0.406584  0  0.916511  0  0  0.297855  0.39066  0  0.940039  0
H  H5  1  0.08667940  0.50854812  0.31538930  1  0  0.42447  0  0.872706  0  0  0.39727  0  0.93027  0  0  0.406613  0  0.91647  0  0  0.297874  0.390688  0  0.939997  0
H  H6  1  0.35322243  0.41240407  0.94162128  1  0  0.440049  0  0.856075  0  0  0.410482  0  0.916824  0  0  0.420431  0  0.902327  0  0  0.309807  0.403464  0  0.927043  0
H  H7  1  0.64677838  0.58759435  0.05837961  1  0  0.440063  0  0.85606  0  0  0.410508  0  0.916791  0  0  0.420458  0  0.902293  0  0  0.309816  0.403489  0  0.927012  0
H  H8  1  0.34165139  0.20682840  0.07768833  1  0  0.428867  0  0.848811  0  0  0.403432  0  0.914398  0  0  0.412633  0  0.902936  0  0  0.316415  0.396905  0  0.92187  0
H  H9  1  0.65835058  0.79317155  0.92231187  1  0  0.428846  0  0.848833  0  0  0.403422  0  0.914391  0  0  0.412623  0  0.902939  0  0  0.316418  0.396897  0  0.921859  0
H  H10  1  0.70579331  0.82420841  0.12983774  1  0  0.398194  0  0.886477  0  0  0.372296  0  0.956887  0  0  0.38336  0  0.945049  0  0  0.314131  0.36449  0  0.965196  0
H  H11  1  0.29420171  0.17579155  0.87016555  1  0  0.398162  0  0.886516  0  0  0.372261  0  0.956936  0  0  0.383326  0  0.9451  0  0  0.314125  0.364467  0  0.965221  0
H  H12  1  0.53152955  0.28412262  0.59907786  1  0  0.134613  0  0.94631  0  0  0.143396  0  1.008211  0  0  0.146931  0  1.006077  0  0  0.121507  0.140891  0  1.009794  0
H  H13  1  0.46846475  0.71588350  0.40092047  1  0  0.134608  0  0.946303  0  0  0.143392  0  1.008201  0  0  0.146928  0  1.006065  0  0  0.121507  0.140888  0  1.009784  0
C  C14  1  0.65878085  0.10602950  0.39209544  1  0  -0.203484  0  3.72102  0  0  -0.186087  0  3.979505  0  0  -0.192464  0  3.99707  0  0  -0.019739  -0.181954  0  3.968056  0
C  C15  1  0.34121526  0.89397200  0.60790475  1  0  -0.203425  0  3.721099  0  0  -0.186053  0  3.97961  0  0  -0.192431  0  3.997169  0  0  -0.019706  -0.181919  0  3.968162  0
C  C16  1  0.51909207  0.15869925  0.55675829  1  0  -0.14484  0  3.704693  0  0  -0.181267  0  3.966415  0  0  -0.181703  0  3.982448  0  0  -0.087593  -0.181053  0  3.955934  0
C  C17  1  0.48090644  0.84130069  0.44324405  1  0  -0.144817  0  3.704777  0  0  -0.181233  0  3.966506  0  0  -0.181666  0  3.982538  0  0  -0.087578  -0.18102  0  3.956025  0
C  C18  1  0.64027065  0.94845782  0.33243746  1  0  0.324818  0  3.806159  0  0  0.308421  0  4.072737  0  0  0.318917  0  4.0874  0  0  0.0898  0.300978  0  4.063136  0
C  C19  1  0.35972787  0.05154213  0.66756489  1  0  0.32478  0  3.80612  0  0  0.308391  0  4.072703  0  0  0.318892  0  4.087364  0  0  0.089775  0.300949  0  4.063104  0
S  S20  1  0.87037963  0.23345992  0.25342836  1  0  1.367404  0  5.553041  0  0  1.263218  0  6.071426  0  0  1.311397  0  6.045053  0  0  0.547592  1.229995  0  6.088792  0
S  S21  1  0.12961759  0.76654312  0.74656993  1  0  1.367309  0  5.553185  0  0  1.263129  0  6.071599  0  0  1.311306  0  6.045221  0  0  0.547492  1.229905  0  6.088969  0
O  O22  1  0.79546411  0.33124987  0.08827150  1  0  -0.727472  0  2.010015  0  0  -0.673835  0  2.266177  0  0  -0.693731  0  2.249345  0  0  -0.355589  -0.659851  0  2.27741  0
O  O23  1  0.20453716  0.66875622  0.91172494  1  0  -0.727413  0  2.01008  0  0  -0.6738  0  2.266307  0  0  -0.693692  0  2.249473  0  0  -0.355522  -0.659816  0  2.27754  0
O  O24  1  0.80442230  0.41493710  0.69606550  1  0  -0.879507  0  1.779787  0  0  -0.839612  0  1.946387  0  0  -0.85494  0  1.918659  0  0  -0.654297  -0.828853  0  1.965717  0
O  O25  1  0.19558544  0.58505670  0.30393220  1  0  -0.879549  0  1.779763  0  0  -0.83965  0  1.946343  0  0  -0.854976  0  1.918614  0  0  -0.654325  -0.828892  0  1.965675  0
O  O26  1  0.11330896  0.07195555  0.22088890  1  0  -0.721485  0  1.993654  0  0  -0.668388  0  2.25055  0  0  -0.689576  0  2.236776  0  0  -0.351831  -0.653405  0  2.25946  0
O  O27  1  0.88668603  0.92804442  0.77911318  1  0  -0.721503  0  1.993678  0  0  -0.668403  0  2.250555  0  0  -0.689596  0  2.236795  0  0  -0.351856  -0.653428  0  2.259485  0
O  O28  1  0.42777958  0.25956982  0.95854783  1  0  -0.84617  0  1.871326  0  0  -0.794829  0  2.053568  0  0  -0.812967  0  2.026611  0  0  -0.598985  -0.782093  0  2.071671  0
O  O29  1  0.57221949  0.74042860  0.04145352  1  0  -0.846166  0  1.871331  0  0  -0.794835  0  2.053546  0  0  -0.812976  0  2.026603  0  0  -0.599  -0.782092  0  2.071653  0
O  O30  1  0.85734622  0.38635591  0.34735849  1  0  -0.679568  0  2.002005  0  0  -0.610089  0  2.235878  0  0  -0.63221  0  2.221317  0  0  -0.314848  -0.59465  0  2.245558  0
O  O31  1  0.14265034  0.61364869  0.65263717  1  0  -0.679557  0  2.002013  0  0  -0.610072  0  2.235885  0  0  -0.632197  0  2.221323  0  0  -0.314817  -0.594632  0  2.245566  0
O  O32  1  0.77691910  0.90643573  0.16825294  1  0  -0.615083  0  2.223527  0  0  -0.573889  0  2.467336  0  0  -0.589987  0  2.454755  0  0  -0.365722  -0.562271  0  2.475545  0
O  O33  1  0.22308050  0.09356576  0.83174631  1  0  -0.61501  0  2.223537  0  0  -0.573825  0  2.467377  0  0  -0.589905  0  2.454756  0  0  -0.365698  -0.562216  0  2.475567  0
