# generated using pymatgen
data_CdH6C7(NO2)2
_symmetry_space_group_name_H-M   'P 1'
_cell_length_a   7.01463856
_cell_length_b   7.86849318
_cell_length_c   7.86852309
_cell_angle_alpha   73.44332457
_cell_angle_beta   75.09621783
_cell_angle_gamma   75.09534461
_symmetry_Int_Tables_number   1
_chemical_formula_structural   CdH6C7(NO2)2
_chemical_formula_sum   'Cd2 H12 C14 N4 O8'
_cell_volume   394.27931737
_cell_formula_units_Z   2
loop_
 _symmetry_equiv_pos_site_id
 _symmetry_equiv_pos_as_xyz
  1  'x, y, z'
loop_
 _atom_site_type_symbol
 _atom_site_label
 _atom_site_symmetry_multiplicity
 _atom_site_fract_x
 _atom_site_fract_y
 _atom_site_fract_z
 _atom_site_occupancy
 _atom_site_hle17_bader_spin_density
 _atom_site_hle17_ddec_charge
 _atom_site_hle17_ddec_spin_density
 _atom_site_hle17_ddec_sum_bond_order
 _atom_site_hle17_magmom
 _atom_site_hse06_10hf_bader_spin_density
 _atom_site_hse06_10hf_ddec_charge
 _atom_site_hse06_10hf_ddec_spin_density
 _atom_site_hse06_10hf_ddec_sum_bond_order
 _atom_site_hse06_10hf_magmom
 _atom_site_hse06_bader_spin_density
 _atom_site_hse06_ddec_charge
 _atom_site_hse06_ddec_spin_density
 _atom_site_hse06_ddec_sum_bond_order
 _atom_site_hse06_magmom
 _atom_site_pbe_bader_spin_density
 _atom_site_pbe_cm5_charge
 _atom_site_pbe_ddec_charge
 _atom_site_pbe_ddec_spin_density
 _atom_site_pbe_ddec_sum_bond_order
 _atom_site_pbe_magmom
Cd  Cd0  1  0.63628164  0.37710303  0.04193649  1  0  1.122596  0  1.571028  0  0  0.928662  0  1.995238  0  0  0.990336  0  1.945895  0  0  0.76133  0.885503  0  2.028225  0
Cd  Cd1  1  0.13628095  0.04194128  0.37710218  1  0  1.122627  0  1.570968  0  0  0.928723  0  1.995167  0  0  0.990394  0  1.945826  0  0  0.761339  0.885562  0  2.028148  0
H  H2  1  0.70485327  0.13042141  0.45107113  1  0  0.33062  0  0.897704  0  0  0.316657  0  0.956041  0  0  0.323662  0  0.950924  0  0  0.298483  0.31164  0  0.959707  0
H  H3  1  0.20485764  0.45106537  0.13042324  1  0  0.330646  0  0.897722  0  0  0.316675  0  0.956054  0  0  0.323681  0  0.95094  0  0  0.298478  0.311657  0  0.959722  0
H  H4  1  0.74414699  0.06361069  0.66353718  1  0  0.319504  0  0.920584  0  0  0.304662  0  0.98218  0  0  0.312325  0  0.976139  0  0  0.291405  0.299157  0  0.986504  0
H  H5  1  0.24414847  0.66353219  0.06361557  1  0  0.319514  0  0.920611  0  0  0.304609  0  0.982265  0  0  0.312274  0  0.976225  0  0  0.291387  0.299107  0  0.986583  0
H  H6  1  0.66387715  0.36887575  0.64267593  1  0  0.093179  0  0.968943  0  0  0.098754  0  1.039043  0  0  0.102007  0  1.035911  0  0  0.116072  0.096442  0  1.04115  0
H  H7  1  0.16387160  0.64268859  0.36887664  1  0  0.093166  0  0.968901  0  0  0.098822  0  1.038927  0  0  0.102084  0  1.03578  0  0  0.116084  0.096501  0  1.041063  0
H  H8  1  0.71171860  0.88937591  0.28559533  1  0  0.114381  0  0.967458  0  0  0.124726  0  1.029522  0  0  0.127681  0  1.027344  0  0  0.108736  0.122485  0  1.031268  0
H  H9  1  0.21171220  0.28559764  0.88937340  1  0  0.114375  0  0.967441  0  0  0.124756  0  1.029482  0  0  0.127712  0  1.027301  0  0  0.108756  0.122516  0  1.03123  0
H  H10  1  0.74827423  0.76649096  0.84964924  1  0  0.108189  0  0.966467  0  0  0.114456  0  1.035124  0  0  0.117723  0  1.032003  0  0  0.118751  0.112046  0  1.037427  0
H  H11  1  0.24827951  0.84964756  0.76649849  1  0  0.108203  0  0.966424  0  0  0.114519  0  1.035024  0  0  0.117788  0  1.0319  0  0  0.118761  0.112101  0  1.037337  0
H  H12  1  0.46627435  0.94611036  0.00372834  1  0  0.030915  0  0.943383  0  0  0.04245  0  1.010938  0  0  0.042193  0  1.0072  0  0  0.116206  0.042408  0  1.013761  0
H  H13  1  0.96627647  0.00372762  0.94610926  1  0  0.030915  0  0.94337  0  0  0.042445  0  1.010925  0  0  0.042187  0  1.007188  0  0  0.116213  0.0424  0  1.013746  0
C  C14  1  0.67055890  0.55227028  0.29165695  1  0  0.646596  0  3.914358  0  0  0.597864  0  4.200951  0  0  0.632744  0  4.194968  0  0  0.197991  0.57432  0  4.204172  0
C  C15  1  0.17055214  0.29166195  0.55226816  1  0  0.646696  0  3.914409  0  0  0.598038  0  4.20099  0  0  0.632918  0  4.195001  0  0  0.198015  0.574483  0  4.204223  0
C  C16  1  0.68818578  0.62127401  0.44459938  1  0  -0.071191  0  3.754014  0  0  -0.046919  0  3.994473  0  0  -0.056479  0  4.015204  0  0  -0.010274  -0.041118  0  3.980996  0
C  C17  1  0.18817786  0.44460719  0.62127352  1  0  -0.071162  0  3.753953  0  0  -0.047106  0  3.99478  0  0  -0.056668  0  4.01551  0  0  -0.010231  -0.041299  0  3.981298  0
C  C18  1  0.68510024  0.50641813  0.61633099  1  0  0.094024  0  3.705587  0  0  0.043236  0  3.970697  0  0  0.052523  0  3.986649  0  0  0.033674  0.037208  0  3.959911  0
C  C19  1  0.18509593  0.61633801  0.50642401  1  0  0.093995  0  3.705655  0  0  0.043193  0  3.970842  0  0  0.052475  0  3.986798  0  0  0.033653  0.037152  0  3.96007  0
C  C20  1  0.71134036  0.79800461  0.41827747  1  0  -0.113108  0  3.635108  0  0  -0.14907  0  3.885508  0  0  -0.147274  0  3.902493  0  0  -0.069324  -0.149918  0  3.874149  0
C  C21  1  0.21133383  0.41827997  0.79800854  1  0  -0.113067  0  3.634936  0  0  -0.149034  0  3.885434  0  0  -0.147238  0  3.902415  0  0  -0.069322  -0.149887  0  3.87408  0
C  C22  1  0.73034725  0.73109027  0.73134197  1  0  0.014364  0  3.649082  0  0  -0.027045  0  3.909512  0  0  -0.021887  0  3.927345  0  0  0.033093  -0.030283  0  3.897371  0
C  C23  1  0.23034663  0.73134286  0.73109452  1  0  0.014426  0  3.649107  0  0  -0.027041  0  3.909531  0  0  -0.021877  0  3.927355  0  0  0.033119  -0.030281  0  3.897392  0
C  C24  1  0.73422237  0.85602058  0.56321824  1  0  0.254768  0  3.8047  0  0  0.255793  0  4.053563  0  0  0.259278  0  4.076785  0  0  0.094851  0.252869  0  4.038095  0
C  C25  1  0.23421551  0.56321716  0.85602466  1  0  0.254618  0  3.804586  0  0  0.25569  0  4.053405  0  0  0.259177  0  4.076625  0  0  0.094741  0.25277  0  4.037935  0
C  C26  1  0.51255904  0.06479576  0.01662435  1  0  0.560871  0  3.902839  0  0  0.482878  0  4.211766  0  0  0.517447  0  4.204402  0  0  0.131587  0.459423  0  4.215985  0
C  C27  1  0.01256131  0.01662112  0.06479699  1  0  0.560956  0  3.902726  0  0  0.482981  0  4.211637  0  0  0.517551  0  4.204272  0  0  0.131628  0.459535  0  4.215849  0
N  N28  1  0.77453815  0.02726891  0.54180151  1  0  -0.674024  0  3.113335  0  0  -0.621798  0  3.344432  0  0  -0.644749  0  3.34444  0  0  -0.594912  -0.605613  0  3.344312  0
N  N29  1  0.27453821  0.54179627  0.02727285  1  0  -0.674006  0  3.113322  0  0  -0.621687  0  3.344415  0  0  -0.644649  0  3.344428  0  0  -0.594821  -0.605502  0  3.344293  0
N  N30  1  0.70627208  0.56107470  0.75592269  1  0  -0.339165  0  3.357521  0  0  -0.251989  0  3.624312  0  0  -0.274502  0  3.647808  0  0  -0.334709  -0.236768  0  3.607792  0
N  N31  1  0.20627024  0.75592749  0.56108086  1  0  -0.339212  0  3.357714  0  0  -0.252025  0  3.624546  0  0  -0.274539  0  3.648045  0  0  -0.33475  -0.236802  0  3.608019  0
O  O32  1  0.70951575  0.64565045  0.13192780  1  0  -0.628841  0  1.927866  0  0  -0.573592  0  2.159023  0  0  -0.600908  0  2.150752  0  0  -0.325562  -0.554641  0  2.163831  0
O  O33  1  0.20951182  0.13193401  0.64564521  1  0  -0.628964  0  1.927851  0  0  -0.573712  0  2.158975  0  0  -0.601029  0  2.150699  0  0  -0.32562  -0.554753  0  2.163784  0
O  O34  1  0.61609078  0.39909600  0.33044710  1  0  -0.641658  0  1.98568  0  0  -0.569183  0  2.223729  0  0  -0.600113  0  2.215211  0  0  -0.327166  -0.547691  0  2.228829  0
O  O35  1  0.11608229  0.33045850  0.39909535  1  0  -0.641662  0  1.985714  0  0  -0.569213  0  2.223768  0  0  -0.600142  0  2.215249  0  0  -0.327172  -0.54772  0  2.228875  0
O  O36  1  0.63980506  0.13840111  0.88978504  1  0  -0.596278  0  2.038157  0  0  -0.524704  0  2.280201  0  0  -0.553931  0  2.271571  0  0  -0.313525  -0.504206  0  2.285235  0
O  O37  1  0.13981034  0.88977869  0.13840149  1  0  -0.59635  0  2.038127  0  0  -0.524794  0  2.280189  0  0  -0.554022  0  2.271558  0  0  -0.313555  -0.504287  0  2.285196  0
O  O38  1  0.43488642  0.12293929  0.16020734  1  0  -0.625719  0  2.058395  0  0  -0.545833  0  2.32291  0  0  -0.578074  0  2.312532  0  0  -0.326706  -0.523252  0  2.329024  0
O  O39  1  0.93488734  0.16020412  0.12294101  1  0  -0.625736  0  2.058394  0  0  -0.545844  0  2.322881  0  0  -0.578081  0  2.312495  0  0  -0.326704  -0.523266  0  2.328995  0
