# generated using pymatgen
data_YbH9C5(NO4)2
_symmetry_space_group_name_H-M   'P 1'
_cell_length_a   6.51377848
_cell_length_b   6.62580463
_cell_length_c   6.62572027
_cell_angle_alpha   64.53385657
_cell_angle_beta   73.13432033
_cell_angle_gamma   73.13470998
_symmetry_Int_Tables_number   1
_chemical_formula_structural   YbH9C5(NO4)2
_chemical_formula_sum   'Yb1 H9 C5 N2 O8'
_cell_volume   242.50290639
_cell_formula_units_Z   1
loop_
 _symmetry_equiv_pos_site_id
 _symmetry_equiv_pos_as_xyz
  1  'x, y, z'
loop_
 _atom_site_type_symbol
 _atom_site_label
 _atom_site_symmetry_multiplicity
 _atom_site_fract_x
 _atom_site_fract_y
 _atom_site_fract_z
 _atom_site_occupancy
 _atom_site_hle17_bader_spin_density
 _atom_site_hle17_ddec_charge
 _atom_site_hle17_ddec_spin_density
 _atom_site_hle17_ddec_sum_bond_order
 _atom_site_hle17_magmom
 _atom_site_hse06_10hf_bader_spin_density
 _atom_site_hse06_10hf_ddec_charge
 _atom_site_hse06_10hf_ddec_spin_density
 _atom_site_hse06_10hf_ddec_sum_bond_order
 _atom_site_hse06_10hf_magmom
 _atom_site_hse06_bader_spin_density
 _atom_site_hse06_ddec_charge
 _atom_site_hse06_ddec_spin_density
 _atom_site_hse06_ddec_sum_bond_order
 _atom_site_hse06_magmom
 _atom_site_pbe_bader_spin_density
 _atom_site_pbe_cm5_charge
 _atom_site_pbe_ddec_charge
 _atom_site_pbe_ddec_spin_density
 _atom_site_pbe_ddec_sum_bond_order
 _atom_site_pbe_magmom
C  C0  1  0.29384490  0.17788678  0.65039817  1  0  0.579526  0  3.812554  0  0  0.50844  0  4.113851  0  0  0.538615  0  4.110135  0  0  0.191126  0.487605  0  4.115459  0
C  C1  1  0.70615440  0.34960875  0.82208188  1  0  0.579845  0  3.812023  0  0  0.50869  0  4.113372  0  0  0.538876  0  4.109658  0  0  0.191269  0.487847  0  4.114974  0
C  C2  1  0.96320721  0.17589099  0.29850864  1  0  0.641584  0  3.866714  0  0  0.573181  0  4.179417  0  0  0.607312  0  4.1683  0  0  0.157462  0.549121  0  4.185795  0
C  C3  1  0.03681777  0.70147240  0.82412290  1  0  0.641472  0  3.866487  0  0  0.573082  0  4.179213  0  0  0.607209  0  4.168105  0  0  0.157314  0.549016  0  4.185591  0
C  C4  1  0.49998964  0.71458984  0.28541386  1  0  0.635133  0  3.827485  0  0  0.564738  0  4.138742  0  0  0.600775  0  4.124095  0  0  0.152671  0.539422  0  4.147469  0
H  H5  1  0.59813528  0.00263366  0.55720125  1  0  0.355132  0  0.883936  0  0  0.33213  0  0.950564  0  0  0.341824  0  0.942067  0  0  0.31016  0.325058  0  0.956935  0
H  H6  1  0.40184232  0.44280417  0.99736333  1  0  0.355209  0  0.883769  0  0  0.332208  0  0.950385  0  0  0.341907  0  0.941886  0  0  0.310097  0.325133  0  0.956758  0
H  H7  1  0.46946160  0.90327223  0.85125532  1  0  0.343316  0  0.891281  0  0  0.322426  0  0.95702  0  0  0.330654  0  0.950643  0  0  0.309615  0.3163  0  0.962141  0
H  H8  1  0.53051715  0.14866195  0.09678575  1  0  0.343552  0  0.890941  0  0  0.322633  0  0.956699  0  0  0.330873  0  0.950308  0  0  0.309521  0.316474  0  0.961858  0
H  H9  1  0.17457061  0.18027419  0.80656336  1  0  0.015251  0  0.928872  0  0  0.023594  0  1.00391  0  0  0.024927  0  0.998467  0  0  0.126285  0.022439  0  1.007936  0
H  H10  1  0.82544786  0.19337576  0.81973222  1  0  0.015153  0  0.928471  0  0  0.023569  0  1.003501  0  0  0.024907  0  0.998054  0  0  0.126172  0.022413  0  1.00753  0
H  H11  1  0.12954746  0.17611331  0.19216326  1  0  0.002959  0  0.938891  0  0  0.011281  0  1.013554  0  0  0.012435  0  1.007824  0  0  0.112971  0.010103  0  1.018185  0
H  H12  1  0.87044504  0.80787283  0.82387885  1  0  0.002987  0  0.938468  0  0  0.011285  0  1.013197  0  0  0.012442  0  1.007469  0  0  0.11295  0.010119  0  1.01781  0
H  H13  1  0.50000972  0.55942202  0.44056977  1  0  0.020027  0  0.965202  0  0  0.028365  0  1.033413  0  0  0.029121  0  1.028303  0  0  0.119006  0.02734  0  1.037759  0
N  N14  1  0.46729628  0.01410871  0.68651500  1  0  -0.601773  0  3.118337  0  0  -0.55838  0  3.362517  0  0  -0.580483  0  3.35601  0  0  -0.548018  -0.543866  0  3.368437  0
N  N15  1  0.53269935  0.31345640  0.98589643  1  0  -0.602253  0  3.11786  0  0  -0.558855  0  3.36212  0  0  -0.580976  0  3.355614  0  0  -0.547859  -0.544303  0  3.368087  0
O  O16  1  0.33138183  0.79274468  0.19451468  1  0  -0.693841  0  2.070503  0  0  -0.64601  0  2.330243  0  0  -0.672349  0  2.318848  0  0  -0.386144  -0.625234  0  2.337014  0
O  O17  1  0.66862160  0.80550750  0.20727484  1  0  -0.69396  0  2.070016  0  0  -0.646148  0  2.329849  0  0  -0.672514  0  2.318492  0  0  -0.386202  -0.625362  0  2.336614  0
O  O18  1  0.26040086  0.32240857  0.45751120  1  0  -0.656194  0  2.116123  0  0  -0.608843  0  2.376265  0  0  -0.633728  0  2.368443  0  0  -0.392135  -0.588693  0  2.380313  0
O  O19  1  0.73960906  0.54253426  0.67756636  1  0  -0.656291  0  2.116154  0  0  -0.608925  0  2.376294  0  0  -0.633818  0  2.368479  0  0  -0.392198  -0.588767  0  2.380342  0
O  O20  1  0.87700751  0.00687372  0.34418508  1  0  -0.716963  0  2.131319  0  0  -0.669513  0  2.396445  0  0  -0.6961  0  2.385798  0  0  -0.417537  -0.648013  0  2.40239  0
O  O21  1  0.12299988  0.65582651  0.99315337  1  0  -0.716996  0  2.131457  0  0  -0.669537  0  2.396561  0  0  -0.696143  0  2.385947  0  0  -0.417506  -0.648031  0  2.402509  0
O  O22  1  0.87195163  0.33680601  0.36579339  1  0  -0.673981  0  2.129787  0  0  -0.627031  0  2.383679  0  0  -0.654619  0  2.378069  0  0  -0.373971  -0.605965  0  2.387112  0
O  O23  1  0.12804702  0.63418017  0.66321670  1  0  -0.673876  0  2.129914  0  0  -0.626934  0  2.383784  0  0  -0.65452  0  2.378176  0  0  -0.3738  -0.605873  0  2.387226  0
Yb  Yb24  1  0.99999309  0.64626620  0.35374567  1  0  2.154983  0  1.77752  0  0  2.084552  0  2.101396  0  0  2.133374  0  2.064418  0  0  1.54875  2.035719  0  2.149897  0
