# generated using pymatgen
data_ZnH6C5N8
_symmetry_space_group_name_H-M   'P 1'
_cell_length_a   6.02860256
_cell_length_b   6.86370553
_cell_length_c   10.93683809
_cell_angle_alpha   91.55909750
_cell_angle_beta   87.91612917
_cell_angle_gamma   68.85296656
_symmetry_Int_Tables_number   1
_chemical_formula_structural   ZnH6C5N8
_chemical_formula_sum   'Zn2 H12 C10 N16'
_cell_volume   421.40062400
_cell_formula_units_Z   2
loop_
 _symmetry_equiv_pos_site_id
 _symmetry_equiv_pos_as_xyz
  1  'x, y, z'
loop_
 _atom_site_type_symbol
 _atom_site_label
 _atom_site_symmetry_multiplicity
 _atom_site_fract_x
 _atom_site_fract_y
 _atom_site_fract_z
 _atom_site_occupancy
 _atom_site_hle17_bader_spin_density
 _atom_site_hle17_ddec_charge
 _atom_site_hle17_ddec_spin_density
 _atom_site_hle17_ddec_sum_bond_order
 _atom_site_hle17_magmom
 _atom_site_hse06_10hf_bader_spin_density
 _atom_site_hse06_10hf_ddec_charge
 _atom_site_hse06_10hf_ddec_spin_density
 _atom_site_hse06_10hf_ddec_sum_bond_order
 _atom_site_hse06_10hf_magmom
 _atom_site_hse06_bader_spin_density
 _atom_site_hse06_ddec_charge
 _atom_site_hse06_ddec_spin_density
 _atom_site_hse06_ddec_sum_bond_order
 _atom_site_hse06_magmom
 _atom_site_pbe_bader_spin_density
 _atom_site_pbe_cm5_charge
 _atom_site_pbe_ddec_charge
 _atom_site_pbe_ddec_spin_density
 _atom_site_pbe_ddec_sum_bond_order
 _atom_site_pbe_magmom
Zn  Zn0  1  0.27788210  0.94079855  0.44726025  1  0  0.969234  0  1.978881  0  0  0.797847  0  2.447403  0  0  0.835673  0  2.407104  0  0  0.720902  0.77176  0  2.474896  0
Zn  Zn1  1  0.72211810  0.05920326  0.55273821  1  0  0.969215  0  1.978888  0  0  0.797826  0  2.447405  0  0  0.835649  0  2.407109  0  0  0.720906  0.77174  0  2.474908  0
H  H2  1  0.76319178  0.79882709  0.32547454  1  0  0.059151  0  0.973939  0  0  0.061898  0  1.052092  0  0  0.063676  0  1.049576  0  0  0.122156  0.060482  0  1.053934  0
H  H3  1  0.23680447  0.20118405  0.67452224  1  0  0.059095  0  0.973951  0  0  0.061832  0  1.052112  0  0  0.063606  0  1.049601  0  0  0.122149  0.060417  0  1.053957  0
H  H4  1  0.29281081  0.74452325  0.98424199  1  0  0.126436  0  0.963767  0  0  0.132389  0  1.027972  0  0  0.136005  0  1.027178  0  0  0.110833  0.130018  0  1.028323  0
H  H5  1  0.70719861  0.25546457  0.01575800  1  0  0.126475  0  0.963736  0  0  0.132432  0  1.027933  0  0  0.136048  0  1.027138  0  0  0.110844  0.130061  0  1.02828  0
H  H6  1  0.11295861  0.82013835  0.19905611  1  0  0.07948  0  0.972407  0  0  0.080771  0  1.050554  0  0  0.083623  0  1.046977  0  0  0.118621  0.078798  0  1.052963  0
H  H7  1  0.88704387  0.17985408  0.80094225  1  0  0.079458  0  0.972436  0  0  0.080747  0  1.050603  0  0  0.083594  0  1.047027  0  0  0.118626  0.078778  0  1.053015  0
H  H8  1  0.63079850  0.73829973  0.84459401  1  0  0.1259  0  0.959555  0  0  0.141485  0  1.026124  0  0  0.142988  0  1.026549  0  0  0.09108  0.140439  0  1.02583  0
H  H9  1  0.36920171  0.26170214  0.15540628  1  0  0.125901  0  0.959551  0  0  0.141494  0  1.026109  0  0  0.142996  0  1.026536  0  0  0.091079  0.140445  0  1.025812  0
H  H10  1  0.86814621  0.53026207  0.90339139  1  0  0.134024  0  0.966967  0  0  0.151836  0  1.034218  0  0  0.153258  0  1.034573  0  0  0.100307  0.150769  0  1.034167  0
H  H11  1  0.13185529  0.46973656  0.09660519  1  0  0.134036  0  0.966976  0  0  0.151841  0  1.034229  0  0  0.153264  0  1.034583  0  0  0.100305  0.150774  0  1.034174  0
H  H12  1  0.88141659  0.78141163  0.90877856  1  0  0.120518  0  0.966556  0  0  0.137218  0  1.0335  0  0  0.13876  0  1.033276  0  0  0.092401  0.136159  0  1.033549  0
H  H13  1  0.11858362  0.21859024  0.09122174  1  0  0.120528  0  0.96658  0  0  0.137238  0  1.033508  0  0  0.138779  0  1.033285  0  0  0.092407  0.136179  0  1.033557  0
C  C14  1  0.65736399  0.79135944  0.24788687  1  0  0.305908  0  3.715687  0  0  0.250949  0  3.99507  0  0  0.266186  0  4.007497  0  0  0.177372  0.241048  0  3.986417  0
C  C15  1  0.34263489  0.20864547  0.75211073  1  0  0.306013  0  3.715667  0  0  0.251062  0  3.995059  0  0  0.2663  0  4.007483  0  0  0.177365  0.241162  0  3.986409  0
C  C16  1  0.63581777  0.73897596  0.04110359  1  0  0.371949  0  3.688681  0  0  0.376358  0  3.933223  0  0  0.389628  0  3.949738  0  0  0.14624  0.367632  0  3.921907  0
C  C17  1  0.36418244  0.26102590  0.95889671  1  0  0.372047  0  3.688737  0  0  0.376448  0  3.933296  0  0  0.389717  0  3.949812  0  0  0.14628  0.367727  0  3.921978  0
C  C18  1  0.39775258  0.75819810  0.06075499  1  0  -0.219384  0  3.643562  0  0  -0.228644  0  3.882035  0  0  -0.242202  0  3.904049  0  0  -0.079176  -0.22005  0  3.867311  0
C  C19  1  0.60224893  0.24179285  0.93924705  1  0  -0.219485  0  3.643673  0  0  -0.228738  0  3.882118  0  0  -0.242297  0  3.904136  0  0  -0.079226  -0.220137  0  3.867388  0
C  C20  1  0.29818825  0.80132880  0.17917421  1  0  0.190203  0  3.677005  0  0  0.151727  0  3.933711  0  0  0.163186  0  3.94927  0  0  0.066233  0.144283  0  3.923081  0
C  C21  1  0.70181261  0.19867150  0.82082606  1  0  0.190236  0  3.677032  0  0  0.151758  0  3.933739  0  0  0.163219  0  3.949298  0  0  0.06625  0.144307  0  3.92312  0
C  C22  1  0.75803102  0.69756526  0.91727714  1  0  -0.396054  0  3.691968  0  0  -0.476422  0  3.926072  0  0  -0.481013  0  3.933588  0  0  -0.247227  -0.473175  0  3.921047  0
C  C23  1  0.24196985  0.30243504  0.08272313  1  0  -0.396098  0  3.691988  0  0  -0.476463  0  3.926098  0  0  -0.481056  0  3.933614  0  0  -0.24724  -0.473221  0  3.921066  0
N  N24  1  0.08255710  0.91260571  0.60216966  1  0  -0.620017  0  2.899908  0  0  -0.568  0  3.238755  0  0  -0.594689  0  3.242313  0  0  -0.323931  -0.549837  0  3.236107  0
N  N25  1  0.91744276  0.08739299  0.39782972  1  0  -0.619998  0  2.899876  0  0  -0.567973  0  3.238758  0  0  -0.594662  0  3.242318  0  0  -0.323922  -0.549808  0  3.236101  0
N  N26  1  0.16806008  0.80526463  0.68679670  1  0  0.414455  0  4.185554  0  0  0.443465  0  4.467455  0  0  0.458554  0  4.496644  0  0  0.095652  0.433272  0  4.447879  0
N  N27  1  0.83194079  0.19473570  0.31320449  1  0  0.414521  0  4.185511  0  0  0.443501  0  4.46745  0  0  0.458589  0  4.496641  0  0  0.095656  0.433308  0  4.44787  0
N  N28  1  0.25194147  0.70422196  0.76847405  1  0  -0.334774  0  2.411687  0  0  -0.333322  0  2.637647  0  0  -0.337801  0  2.64909  0  0  -0.157519  -0.330203  0  2.63011  0
N  N29  1  0.74805974  0.29578150  0.23152714  1  0  -0.334822  0  2.411678  0  0  -0.333367  0  2.637664  0  0  -0.337844  0  2.649107  0  0  -0.157517  -0.33025  0  2.630126  0
N  N30  1  0.38710769  0.19672848  0.46268035  1  0  -0.630179  0  2.867165  0  0  -0.581796  0  3.199815  0  0  -0.607064  0  3.203382  0  0  -0.328383  -0.564252  0  3.196924  0
N  N31  1  0.61288325  0.80327954  0.53731838  1  0  -0.630333  0  2.866822  0  0  -0.581949  0  3.199511  0  0  -0.607225  0  3.203077  0  0  -0.328425  -0.564397  0  3.196617  0
N  N32  1  0.28557571  0.37456398  0.43333833  1  0  0.426326  0  4.182786  0  0  0.456761  0  4.464188  0  0  0.472113  0  4.49296  0  0  0.098397  0.446404  0  4.444603  0
N  N33  1  0.71442381  0.62543161  0.56666195  1  0  0.426365  0  4.182819  0  0  0.456788  0  4.464219  0  0  0.472139  0  4.492984  0  0  0.098434  0.446433  0  4.444635  0
N  N34  1  0.18926351  0.54532803  0.40498083  1  0  -0.347385  0  2.420883  0  0  -0.346767  0  2.658198  0  0  -0.351837  0  2.668052  0  0  -0.168522  -0.343341  0  2.652055  0
N  N35  1  0.81072778  0.45468313  0.59501791  1  0  -0.347267  0  2.421342  0  0  -0.34662  0  2.658601  0  0  -0.351677  0  2.668444  0  0  -0.168468  -0.343197  0  2.652463  0
N  N36  1  0.42691742  0.82137989  0.27369711  1  0  -0.38377  0  3.290856  0  0  -0.29948  0  3.56719  0  0  -0.323081  0  3.583481  0  0  -0.32811  -0.283948  0  3.556271  0
N  N37  1  0.57308409  0.17861882  0.72630222  1  0  -0.383774  0  3.290768  0  0  -0.299492  0  3.56711  0  0  -0.323093  0  3.5834  0  0  -0.328093  -0.283953  0  3.556195  0
N  N38  1  0.76491868  0.75453882  0.13692783  1  0  -0.392032  0  3.005244  0  0  -0.348283  0  3.267898  0  0  -0.36597  0  3.28095  0  0  -0.307371  -0.33628  0  3.258513  0
N  N39  1  0.23508383  0.24546144  0.86307056  1  0  -0.392102  0  3.005299  0  0  -0.348353  0  3.267961  0  0  -0.36604  0  3.281012  0  0  -0.307363  -0.336344  0  3.258568  0
