# generated using pymatgen
data_AgPH5C2O3
_symmetry_space_group_name_H-M   'P 1'
_cell_length_a   4.57186151
_cell_length_b   5.62791692
_cell_length_c   10.15978706
_cell_angle_alpha   74.75279323
_cell_angle_beta   76.58212388
_cell_angle_gamma   73.76555071
_symmetry_Int_Tables_number   1
_chemical_formula_structural   AgPH5C2O3
_chemical_formula_sum   'Ag2 P2 H10 C4 O6'
_cell_volume   238.58111133
_cell_formula_units_Z   2
loop_
 _symmetry_equiv_pos_site_id
 _symmetry_equiv_pos_as_xyz
  1  'x, y, z'
loop_
 _atom_site_type_symbol
 _atom_site_label
 _atom_site_symmetry_multiplicity
 _atom_site_fract_x
 _atom_site_fract_y
 _atom_site_fract_z
 _atom_site_occupancy
 _atom_site_hle17_bader_spin_density
 _atom_site_hle17_ddec_charge
 _atom_site_hle17_ddec_spin_density
 _atom_site_hle17_ddec_sum_bond_order
 _atom_site_hle17_magmom
 _atom_site_hse06_10hf_bader_spin_density
 _atom_site_hse06_10hf_ddec_charge
 _atom_site_hse06_10hf_ddec_spin_density
 _atom_site_hse06_10hf_ddec_sum_bond_order
 _atom_site_hse06_10hf_magmom
 _atom_site_hse06_bader_spin_density
 _atom_site_hse06_ddec_charge
 _atom_site_hse06_ddec_spin_density
 _atom_site_hse06_ddec_sum_bond_order
 _atom_site_hse06_magmom
 _atom_site_pbe_bader_spin_density
 _atom_site_pbe_cm5_charge
 _atom_site_pbe_ddec_charge
 _atom_site_pbe_ddec_spin_density
 _atom_site_pbe_ddec_sum_bond_order
 _atom_site_pbe_magmom
Ag  Ag0  1  0.30607355  0.30431397  0.54295956  1  0  0.643045  0  1.362389  0  0  0.521446  0  1.80903  0  0  0.557234  0  1.743989  0  0  0.444761  0.495904  0  1.854356  0
Ag  Ag1  1  0.69391649  0.69568556  0.45703859  1  0  0.643037  0  1.362423  0  0  0.521465  0  1.809046  0  0  0.557253  0  1.744002  0  0  0.444792  0.495925  0  1.854369  0
P  P2  1  0.18721861  0.66706009  0.73866403  1  0  1.466906  0  4.771196  0  0  1.31542  0  5.247991  0  0  1.362942  0  5.218067  0  0  0.333189  1.282429  0  5.267693  0
P  P3  1  0.81278928  0.33294847  0.26133401  1  0  1.466708  0  4.771461  0  0  1.315235  0  5.248263  0  0  1.36276  0  5.218335  0  0  0.333097  1.282246  0  5.267958  0
H  H4  1  0.67312614  0.49061603  0.76825826  1  0  0.437417  0  0.87174  0  0  0.403535  0  0.940523  0  0  0.414879  0  0.924325  0  0  0.305236  0.395598  0  0.951825  0
H  H5  1  0.32687946  0.50937557  0.23174330  1  0  0.437442  0  0.871708  0  0  0.403566  0  0.940481  0  0  0.414908  0  0.924287  0  0  0.305267  0.395626  0  0.951787  0
H  H6  1  0.76960401  0.98799488  0.81301767  1  0  0.135764  0  0.935988  0  0  0.151857  0  0.991619  0  0  0.153756  0  0.991542  0  0  0.108943  0.150436  0  0.991803  0
H  H7  1  0.23040459  0.01200247  0.18697886  1  0  0.135759  0  0.936078  0  0  0.151863  0  0.991683  0  0  0.153763  0  0.991607  0  0  0.108966  0.150443  0  0.991868  0
H  H8  1  0.80278259  0.70276368  0.93951809  1  0  0.138627  0  0.941865  0  0  0.1536  0  0.997457  0  0  0.155479  0  0.998177  0  0  0.109545  0.152208  0  0.997086  0
H  H9  1  0.19721226  0.29724316  0.06048251  1  0  0.138655  0  0.941797  0  0  0.1536  0  0.997444  0  0  0.155478  0  0.998169  0  0  0.109544  0.152209  0  0.997074  0
H  H10  1  0.23919575  0.06485977  0.87142406  1  0  0.066606  0  0.95698  0  0  0.08487  0  1.021599  0  0  0.085519  0  1.021978  0  0  0.087932  0.084368  0  1.021444  0
H  H11  1  0.76079281  0.93514529  0.12857743  1  0  0.066643  0  0.956949  0  0  0.08488  0  1.021571  0  0  0.085531  0  1.02194  0  0  0.087941  0.08438  0  1.021414  0
H  H12  1  0.27964995  0.77464924  0.99370127  1  0  0.069493  0  0.957243  0  0  0.087907  0  1.019162  0  0  0.08873  0  1.019715  0  0  0.090005  0.087313  0  1.01886  0
H  H13  1  0.72034666  0.22535938  0.00630088  1  0  0.069457  0  0.957316  0  0  0.087881  0  1.019205  0  0  0.088699  0  1.019757  0  0  0.089965  0.08729  0  1.018897  0
C  C14  1  0.93613760  0.83293569  0.86686559  1  0  -0.442456  0  3.65532  0  0  -0.455077  0  3.895578  0  0  -0.465926  0  3.907162  0  0  -0.166257  -0.447523  0  3.887604  0
C  C15  1  0.06386050  0.16706726  0.13313717  1  0  -0.442424  0  3.65534  0  0  -0.455078  0  3.895625  0  0  -0.465936  0  3.907209  0  0  -0.166244  -0.447522  0  3.887653  0
C  C16  1  0.10946611  0.93297298  0.94469812  1  0  -0.053474  0  3.654838  0  0  -0.093731  0  3.905567  0  0  -0.094057  0  3.921274  0  0  -0.165672  -0.093412  0  3.894769  0
C  C17  1  0.89053549  0.06703387  0.05529883  1  0  -0.053515  0  3.654909  0  0  -0.0937  0  3.905569  0  0  -0.094004  0  3.921251  0  0  -0.165653  -0.093384  0  3.894769  0
O  O18  1  0.45404417  0.46794039  0.81265689  1  0  -0.75599  0  2.033708  0  0  -0.685092  0  2.270383  0  0  -0.706126  0  2.245732  0  0  -0.386413  -0.670324  0  2.287169  0
O  O19  1  0.54595615  0.53204552  0.18734894  1  0  -0.755877  0  2.033787  0  0  -0.684993  0  2.270468  0  0  -0.706034  0  2.245826  0  0  -0.386378  -0.670217  0  2.287249  0
O  O20  1  0.00084297  0.51340850  0.69839561  1  0  -0.859119  0  2.139102  0  0  -0.748722  0  2.413362  0  0  -0.782023  0  2.393493  0  0  -0.37361  -0.72538  0  2.426393  0
O  O21  1  0.99915209  0.48658898  0.30160427  1  0  -0.85907  0  2.139237  0  0  -0.748698  0  2.413515  0  0  -0.781995  0  2.393639  0  0  -0.373609  -0.725361  0  2.426549  0
O  O22  1  0.32575128  0.85156061  0.61668433  1  0  -0.846822  0  2.127182  0  0  -0.736029  0  2.426623  0  0  -0.770426  0  2.404509  0  0  -0.387671  -0.711639  0  2.440773  0
O  O23  1  0.67426111  0.14843069  0.38332149  1  0  -0.846814  0  2.127003  0  0  -0.736006  0  2.426425  0  0  -0.770403  0  2.404312  0  0  -0.387673  -0.711614  0  2.440572  0
