# generated using pymatgen
data_MnH4(C2O3)2
_symmetry_space_group_name_H-M   'P 1'
_cell_length_a   7.16680943
_cell_length_b   7.56501979
_cell_length_c   7.81431261
_cell_angle_alpha   91.23952712
_cell_angle_beta   117.31261859
_cell_angle_gamma   118.28972993
_symmetry_Int_Tables_number   1
_chemical_formula_structural   MnH4(C2O3)2
_chemical_formula_sum   'Mn2 H8 C8 O12'
_cell_volume   315.61914501
_cell_formula_units_Z   2
loop_
 _symmetry_equiv_pos_site_id
 _symmetry_equiv_pos_as_xyz
  1  'x, y, z'
loop_
 _atom_site_type_symbol
 _atom_site_label
 _atom_site_symmetry_multiplicity
 _atom_site_fract_x
 _atom_site_fract_y
 _atom_site_fract_z
 _atom_site_occupancy
 _atom_site_hle17_ddec_charge
 _atom_site_hle17_ddec_spin_density
 _atom_site_hle17_ddec_sum_bond_order
 _atom_site_hle17_magmom
 _atom_site_hse06_10hf_ddec_charge
 _atom_site_hse06_10hf_ddec_spin_density
 _atom_site_hse06_10hf_ddec_sum_bond_order
 _atom_site_hse06_10hf_magmom
 _atom_site_hse06_ddec_charge
 _atom_site_hse06_ddec_spin_density
 _atom_site_hse06_ddec_sum_bond_order
 _atom_site_hse06_magmom
 _atom_site_pbe_cm5_charge
 _atom_site_pbe_ddec_charge
 _atom_site_pbe_ddec_spin_density
 _atom_site_pbe_ddec_sum_bond_order
 _atom_site_pbe_magmom
Mn  Mn0  1  0.50000143  0.00000499  0.50000598  1  1.300295  4.806323  1.627089  4.703  1.143724  4.732802  2.116372  4.566  1.197326  4.771315  2.044267  4.622  0.605549  1.103994  4.691026  2.168256  4.508
Mn  Mn1  1  0.49999959  0.49999729  0.99999959  1  1.300173  4.80585  1.629267  4.702  1.143839  4.731839  2.119102  4.565  1.19738  4.770748  2.046779  4.622  0.605406  1.103851  4.690405  2.171241  4.507
H  H2  1  0.73742566  0.40461941  0.44623897  1  0.430325  8.7e-05  0.869021  0.002  0.399495  0.000896  0.931895  0.003  0.409898  0.000489  0.917068  0.003  0.297443  0.392259  0.001273  0.942158  0.003
H  H3  1  0.38672309  0.09546214  0.05374437  1  0.430381  8.8e-05  0.86914  0.002  0.399563  0.00089  0.932059  0.003  0.409966  0.000486  0.917216  0.003  0.297704  0.392264  0.00128  0.942418  0.003
H  H4  1  0.26257705  0.59538681  0.55376283  1  0.430324  9e-05  0.869039  0.002  0.39949  0.000896  0.931922  0.003  0.409896  0.000489  0.917091  0.003  0.297413  0.392253  0.001273  0.942187  0.003
H  H5  1  0.61327423  0.90453308  0.94625268  1  0.430394  9e-05  0.869113  0.002  0.39954  0.00089  0.932076  0.003  0.409944  0.000486  0.917233  0.003  0.297702  0.392242  0.00128  0.942434  0.003
H  H6  1  0.91670103  0.36575188  0.64110624  1  0.428678  -0.000342  0.865453  0.001  0.397325  0.000504  0.932744  0.002  0.407735  0.000175  0.917652  0.001  0.302696  0.390038  0.000817  0.943254  0.002
H  H7  1  0.40989738  0.13448476  0.85892191  1  0.427985  -0.000331  0.86659  0.001  0.396934  0.000509  0.933063  0.002  0.407323  0.000178  0.918002  0.001  0.302381  0.389656  0.000818  0.943567  0.002
H  H8  1  0.08329961  0.63424646  0.35889307  1  0.428652  -0.000342  0.865499  0.001  0.397301  0.000505  0.932783  0.002  0.407709  0.000176  0.917693  0.001  0.302671  0.390013  0.000817  0.943292  0.002
H  H9  1  0.59009889  0.86551361  0.14107615  1  0.428028  -0.000328  0.866545  0.001  0.396978  0.000509  0.933005  0.002  0.407365  0.000178  0.917947  0.001  0.302409  0.389699  0.000819  0.94351  0.002
C  C10  1  0.03439123  0.77017518  0.05025805  1  0.742738  0.006996  3.934388  0.008  0.68147  0.013516  4.231816  0.013  0.721029  0.009776  4.216182  0.01  0.240991  0.653799  0.017914  4.24253  0.016
C  C11  1  0.71409996  0.72971074  0.44976219  1  0.743891  0.00688  3.936049  0.008  0.682105  0.013334  4.234678  0.012  0.721675  0.009655  4.218964  0.01  0.241515  0.654427  0.017747  4.245422  0.016
C  C12  1  0.96560989  0.22981694  0.94973603  1  0.742851  0.007054  3.934316  0.008  0.681579  0.013512  4.231738  0.013  0.721134  0.009773  4.216107  0.01  0.241003  0.653909  0.017911  4.242456  0.016
C  C13  1  0.28589509  0.27029410  0.55023083  1  0.743656  0.006914  3.935886  0.008  0.681941  0.01334  4.234462  0.012  0.721518  0.009663  4.218744  0.01  0.241357  0.654258  0.017757  4.245212  0.016
C  C14  1  0.92815522  0.75446290  0.83881498  1  -0.114097  0.002168  3.663554  0.002  -0.118682  0.005445  3.934769  0.004  -0.120165  0.002977  3.947713  0.003  -0.014833  -0.119009  0.008805  3.928272  0.006
C  C15  1  0.83518773  0.74568839  0.66123862  1  -0.115957  0.002173  3.664109  0.002  -0.120433  0.005539  3.935618  0.004  -0.121901  0.003082  3.948519  0.003  -0.014449  -0.120719  0.008907  3.929122  0.006
C  C16  1  0.07183972  0.24553093  0.16117388  1  -0.114044  0.002049  3.663132  0.002  -0.118626  0.005447  3.934341  0.004  -0.120104  0.002994  3.947283  0.003  -0.014723  -0.118958  0.008815  3.927848  0.006
C  C17  1  0.16482866  0.25432253  0.33876583  1  -0.115963  0.002264  3.663914  0.002  -0.120452  0.005543  3.935422  0.004  -0.121921  0.003067  3.948315  0.003  -0.014461  -0.120736  0.008909  3.928931  0.006
O  O18  1  0.76519131  0.29679565  0.50305565  1  -0.852214  0.032275  1.898703  0.02  -0.791616  0.040515  2.110706  0.024  -0.815823  0.036187  2.075295  0.02  -0.573405  -0.77307  0.04463  2.134782  0.028
O  O19  1  0.46549729  0.20334646  0.99700373  1  -0.851478  0.032281  1.900346  0.02  -0.791193  0.040572  2.112152  0.024  -0.815394  0.036235  2.076761  0.021  -0.573193  -0.772643  0.044649  2.136292  0.028
O  O20  1  0.23480360  0.70320592  0.49694150  1  -0.852201  0.032271  1.898755  0.02  -0.791581  0.040515  2.11071  0.024  -0.815808  0.036187  2.075332  0.02  -0.573356  -0.773035  0.044629  2.13479  0.028
O  O21  1  0.53450188  0.79664879  0.00299201  1  -0.851502  0.032272  1.900253  0.02  -0.79119  0.040569  2.112083  0.024  -0.8154  0.036233  2.076716  0.021  -0.573216  -0.772639  0.044647  2.136222  0.028
O  O22  1  0.26039893  0.92405216  0.17147102  1  -0.647255  0.031336  2.047992  0.019  -0.570072  0.040145  2.292276  0.025  -0.601894  0.035856  2.278448  0.021  -0.277756  -0.547316  0.044474  2.301585  0.029
O  O23  1  0.66486120  0.57574141  0.32869347  1  -0.648468  0.031249  2.051441  0.019  -0.570934  0.039934  2.295749  0.025  -0.602814  0.035752  2.281887  0.021  -0.278222  -0.548278  0.044429  2.305109  0.029
O  O24  1  0.73960283  0.07594761  0.82853520  1  -0.647346  0.031311  2.048075  0.019  -0.570071  0.040148  2.292228  0.025  -0.601889  0.035859  2.278394  0.021  -0.277728  -0.547318  0.044476  2.301541  0.029
O  O25  1  0.33514936  0.42426761  0.67132468  1  -0.648302  0.031243  2.05114  0.019  -0.570879  0.039942  2.295522  0.025  -0.60276  0.035758  2.281659  0.021  -0.278132  -0.548234  0.044437  2.304909  0.029
O  O26  1  0.89766013  0.63277801  0.10159404  1  -0.637561  0.024619  2.022332  0.013  -0.569036  0.033006  2.272727  0.018  -0.598682  0.029124  2.25661  0.015  -0.278041  -0.547777  0.036829  2.283552  0.021
O  O27  1  0.66363495  0.86715463  0.39842149  1  -0.637229  0.024426  2.020037  0.013  -0.568742  0.032861  2.27034  0.018  -0.59832  0.028986  2.254223  0.015  -0.278314  -0.547575  0.036694  2.281154  0.021
O  O28  1  0.10233212  0.36721089  0.89840168  1  -0.637587  0.024599  2.022221  0.013  -0.569077  0.033006  2.272615  0.018  -0.598723  0.029126  2.256497  0.015  -0.278113  -0.54782  0.036827  2.283446  0.021
O  O29  1  0.33636658  0.13285147  0.60158546  1  -0.637167  0.024428  2.019844  0.013  -0.568703  0.032867  2.270133  0.018  -0.598298  0.028988  2.254022  0.015  -0.278296  -0.547535  0.036701  2.280951  0.021
