# generated using pymatgen
data_NaH3C4O5
_symmetry_space_group_name_H-M   'P 1'
_cell_length_a   3.61827428
_cell_length_b   8.12682809
_cell_length_c   9.45030727
_cell_angle_alpha   89.99963159
_cell_angle_beta   98.23673984
_cell_angle_gamma   90.00028296
_symmetry_Int_Tables_number   1
_chemical_formula_structural   NaH3C4O5
_chemical_formula_sum   'Na2 H6 C8 O10'
_cell_volume   275.02063903
_cell_formula_units_Z   2
loop_
 _symmetry_equiv_pos_site_id
 _symmetry_equiv_pos_as_xyz
  1  'x, y, z'
loop_
 _atom_site_type_symbol
 _atom_site_label
 _atom_site_symmetry_multiplicity
 _atom_site_fract_x
 _atom_site_fract_y
 _atom_site_fract_z
 _atom_site_occupancy
 _atom_site_pbe_bader_spin_density
 _atom_site_pbe_cm5_charge
 _atom_site_pbe_ddec_charge
 _atom_site_pbe_ddec_spin_density
 _atom_site_pbe_ddec_sum_bond_order
 _atom_site_pbe_magmom
Na  Na0  1  0.45766032  0.13689382  0.35526284  1  0  0.653977  0.833425  0  0.556986  0
Na  Na1  1  0.45764167  0.86310997  0.85526483  1  0  0.653963  0.833398  0  0.557006  0
H  H2  1  0.91380449  0.03808052  0.13176245  1  0  0.296368  0.387776  0  0.950387  0
H  H3  1  0.91378396  0.96191621  0.63175959  1  0  0.296284  0.387645  0  0.950564  0
H  H4  1  0.87601806  0.23081989  0.12894051  1  0  0.297969  0.388105  0  0.945139  0
H  H5  1  0.87599853  0.76917923  0.62894505  1  0  0.297952  0.388146  0  0.945093  0
H  H6  1  0.72122388  0.49586688  0.97479358  1  0  0.300458  0.335248  0  1.009285  0
H  H7  1  0.72122369  0.50413777  0.47478974  1  0  0.300517  0.335405  0  1.009079  0
C  C8  1  0.32555564  0.55545949  0.28073901  1  0  0.108153  0.16913  0  4.112972  0
C  C9  1  0.32553299  0.44453969  0.78073872  1  0  0.108128  0.16906  0  4.113025  0
C  C10  1  0.07956281  0.55969757  0.14662966  1  0  0.097711  0.123572  0  4.070995  0
C  C11  1  0.07957088  0.44029353  0.64663951  1  0  0.09774  0.123698  0  4.071119  0
C  C12  1  0.09222615  0.73864566  0.13967094  1  0  0.113127  0.168071  0  4.17041  0
C  C13  1  0.09223809  0.26136152  0.63967875  1  0  0.113107  0.167933  0  4.170225  0
C  C14  1  0.33889179  0.74020931  0.28318781  1  0  0.122408  0.192684  0  4.131599  0
C  C15  1  0.33885630  0.25978865  0.78320259  1  0  0.122561  0.192972  0  4.132131  0
O  O16  1  0.89766395  0.13558447  0.19363335  1  0  -0.709913  -0.887065  0  1.996531  0
O  O17  1  0.89764251  0.86440803  0.69363306  1  0  -0.709807  -0.886945  0  1.99653  0
O  O18  1  0.47709990  0.44225034  0.36191539  1  0  -0.323374  -0.444401  0  2.363294  0
O  O19  1  0.47707836  0.55775467  0.86191985  1  0  -0.323374  -0.444419  0  2.363233  0
O  O20  1  0.90984913  0.44552879  0.06508283  1  0  -0.291191  -0.361875  0  2.472951  0
O  O21  1  0.90984706  0.55446845  0.56508095  1  0  -0.291275  -0.362084  0  2.472541  0
O  O22  1  0.95899503  0.84472032  0.05009383  1  0  -0.344545  -0.487941  0  2.297972  0
O  O23  1  0.95900593  0.15527346  0.55009684  1  0  -0.344548  -0.487963  0  2.297543  0
O  O24  1  0.48722438  0.84547776  0.36656657  1  0  -0.321183  -0.416756  0  2.229605  0
O  O25  1  0.48719619  0.15454200  0.86656641  1  0  -0.321213  -0.416818  0  2.23035  0
