# generated using pymatgen
data_NiH5C5NCl2
_symmetry_space_group_name_H-M   'P 1'
_cell_length_a   3.50561214
_cell_length_b   8.83553791
_cell_length_c   11.00065247
_cell_angle_alpha   75.63845883
_cell_angle_beta   81.00557533
_cell_angle_gamma   78.67093437
_symmetry_Int_Tables_number   1
_chemical_formula_structural   NiH5C5NCl2
_chemical_formula_sum   'Ni2 H10 C10 N2 Cl4'
_cell_volume   321.57046106
_cell_formula_units_Z   2
loop_
 _symmetry_equiv_pos_site_id
 _symmetry_equiv_pos_as_xyz
  1  'x, y, z'
loop_
 _atom_site_type_symbol
 _atom_site_label
 _atom_site_symmetry_multiplicity
 _atom_site_fract_x
 _atom_site_fract_y
 _atom_site_fract_z
 _atom_site_occupancy
 _atom_site_hle17_ddec_charge
 _atom_site_hle17_ddec_spin_density
 _atom_site_hle17_ddec_sum_bond_order
 _atom_site_hle17_magmom
 _atom_site_pbe_cm5_charge
 _atom_site_pbe_ddec_charge
 _atom_site_pbe_ddec_spin_density
 _atom_site_pbe_ddec_sum_bond_order
 _atom_site_pbe_magmom
Ni  Ni0  1  0.33388017  0.46512218  0.86229393  1  0.623462  1.681484  2.23908  1.393  0.422043  0.60893  1.671424  2.657873  1.445
Ni  Ni1  1  0.66611936  0.53487814  0.13770460  1  0.623436  -1.681488  2.239152  -1.393  0.422036  0.608906  -1.671423  2.657949  -1.445
H  H2  1  0.47323118  0.44280496  0.59763067  1  0.075518  0.001005  0.966172  0.002  0.106528  0.081437  0.001053  1.036095  0.001
H  H3  1  0.52677019  0.55719537  0.40236891  1  0.075508  -0.001005  0.966177  -0.002  0.10653  0.081429  -0.001053  1.036097  -0.001
H  H4  1  0.47406688  0.11509025  0.93756324  1  0.07603  0.000612  0.96488  0.002  0.105226  0.082138  0.000552  1.034206  0.001
H  H5  1  0.52593536  0.88491245  0.06243697  1  0.076054  -0.000612  0.964822  -0.002  0.105234  0.082132  -0.000552  1.034187  -0.001
H  H6  1  0.64458073  0.23192651  0.47383406  1  0.104571  -0.000746  0.967499  0.0  0.097002  0.109863  -0.001051  1.034521  0.0
H  H7  1  0.35541564  0.76807263  0.52616544  1  0.104566  0.000747  0.96753  0.0  0.097011  0.109868  0.001051  1.03454  0.0
H  H8  1  0.64895019  0.88624018  0.82936754  1  0.113151  -0.000531  0.97571  0.0  0.092474  0.116917  -0.000686  1.041989  0.0
H  H9  1  0.35103888  0.11375896  0.17063349  1  0.113143  0.000532  0.975695  0.0  0.092455  0.116905  0.000686  1.04197  0.0
H  H10  1  0.73553011  0.94441683  0.59456988  1  0.090119  0.000566  0.958364  0.001  0.102239  0.101001  0.000427  1.019942  0.0
H  H11  1  0.26445848  0.05558350  0.40543093  1  0.090127  -0.000567  0.958327  -0.001  0.102229  0.101005  -0.000427  1.019916  0.0
C  C12  1  0.51576219  0.31778740  0.64413128  1  0.12694  -0.009479  3.680747  -0.012  0.041058  0.092137  -0.002457  3.921925  -0.003
C  C13  1  0.48423966  0.68221174  0.35586852  1  0.126981  0.009501  3.680672  0.012  0.041071  0.09219  0.002457  3.921878  0.003
C  C14  1  0.51611926  0.13361025  0.83515299  1  0.125975  -0.009122  3.673008  -0.011  0.041007  0.091535  -0.002334  3.915785  -0.003
C  C15  1  0.48388114  0.86639245  0.16484617  1  0.125928  0.009143  3.67304  0.011  0.040992  0.091524  0.002333  3.915838  0.003
C  C16  1  0.61091343  0.19901785  0.57673585  1  -0.125644  0.008674  3.740291  0.011  -0.087128  -0.131034  0.002275  3.975712  0.003
C  C17  1  0.38908616  0.80098010  0.42326401  1  -0.125682  -0.008697  3.740336  -0.011  -0.087147  -0.131078  -0.002275  3.975772  -0.003
C  C18  1  0.61188104  0.00817758  0.77486992  1  -0.112847  0.00938  3.719644  0.011  -0.087172  -0.119027  0.002909  3.952926  0.004
C  C19  1  0.38812449  0.99182157  0.22513199  1  -0.112866  -0.009404  3.719667  -0.011  -0.087149  -0.119022  -0.00291  3.952909  -0.004
C  C20  1  0.66013623  0.04148810  0.64330255  1  -0.005822  -0.010424  3.717535  -0.012  -0.069916  -0.026016  -0.00388  3.947556  -0.004
C  C21  1  0.33985510  0.95851223  0.35669840  1  -0.005775  0.010447  3.7175  0.012  -0.069889  -0.02597  0.00388  3.947513  0.004
N  N22  1  0.46921863  0.28593500  0.77112856  1  -0.272127  0.067092  3.369213  0.1  -0.338648  -0.207119  0.047654  3.633741  0.072
N  N23  1  0.53078955  0.71406650  0.22886929  1  -0.27209  -0.06711  3.369156  -0.1  -0.338671  -0.207158  -0.047655  3.633765  -0.072
Cl  Cl24  1  0.82615517  0.33970669  0.00649438  1  -0.396735  0.06963  1.44583  0.093  -0.18986  -0.384806  0.061591  1.789669  0.081
Cl  Cl25  1  0.17384346  0.66029363  0.99350505  1  -0.396732  -0.06963  1.445832  -0.093  -0.189854  -0.38479  -0.061589  1.78965  -0.081
Cl  Cl26  1  0.82886046  0.60259953  0.73515142  1  -0.422591  0.144578  1.200715  0.194  -0.234847  -0.415954  0.11551  1.515525  0.152
Cl  Cl27  1  0.17113859  0.39740198  0.26484689  1  -0.422599  -0.144576  1.200767  -0.194  -0.23485  -0.415944  -0.115512  1.515562  -0.152
