# generated using pymatgen
data_Cu2H2C2Br2N3
_symmetry_space_group_name_H-M   'P 1'
_cell_length_a   7.00571733
_cell_length_b   7.21487650
_cell_length_c   7.85095026
_cell_angle_alpha   113.87821983
_cell_angle_beta   113.09806649
_cell_angle_gamma   96.92115946
_symmetry_Int_Tables_number   1
_chemical_formula_structural   Cu2H2C2Br2N3
_chemical_formula_sum   'Cu4 H4 C4 Br4 N6'
_cell_volume   314.83447953
_cell_formula_units_Z   2
loop_
 _symmetry_equiv_pos_site_id
 _symmetry_equiv_pos_as_xyz
  1  'x, y, z'
loop_
 _atom_site_type_symbol
 _atom_site_label
 _atom_site_symmetry_multiplicity
 _atom_site_fract_x
 _atom_site_fract_y
 _atom_site_fract_z
 _atom_site_occupancy
 _atom_site_hle17_ddec_charge
 _atom_site_hle17_ddec_spin_density
 _atom_site_hle17_ddec_sum_bond_order
 _atom_site_hle17_magmom
 _atom_site_hse06_10hf_ddec_charge
 _atom_site_hse06_10hf_ddec_spin_density
 _atom_site_hse06_10hf_ddec_sum_bond_order
 _atom_site_hse06_10hf_magmom
 _atom_site_hse06_ddec_charge
 _atom_site_hse06_ddec_spin_density
 _atom_site_hse06_ddec_sum_bond_order
 _atom_site_hse06_magmom
 _atom_site_pbe_cm5_charge
 _atom_site_pbe_ddec_charge
 _atom_site_pbe_ddec_spin_density
 _atom_site_pbe_ddec_sum_bond_order
 _atom_site_pbe_magmom
Cu  Cu0  1  0.99999343  0.00000268  0.99999606  1  0.611264  0.440721  1.969367  0.334  0.590222  0.577565  2.367088  0.464  0.713386  0.735725  2.288628  0.611  0.534997  0.534007  0.454645  2.410542  0.363
Cu  Cu1  1  0.50000656  0.00002202  0.00000336  1  0.611103  -0.442936  1.973504  -0.336  0.591036  -0.580434  2.371082  -0.466  0.713183  -0.736309  2.292622  -0.611  0.535489  0.534746  -0.457167  2.414659  -0.365
Cu  Cu2  1  0.20293181  0.45224830  0.90352914  1  0.521983  0.002014  1.853656  0.002  0.39482  0.002085  2.343484  0.002  0.377208  0.000613  2.298948  0.001  0.367146  0.407845  0.001923  2.371209  0.002
Cu  Cu3  1  0.79714592  0.54778388  0.09647400  1  0.522018  0.001725  1.853635  0.001  0.394905  0.001846  2.34347  0.002  0.377341  0.000556  2.298822  0.0  0.367214  0.407941  0.001677  2.37122  0.001
H  H4  1  0.69510853  0.75906151  0.48765730  1  0.096478  -0.00025  0.946399  0.0  0.108536  -0.000225  1.007165  0.0  0.111857  -0.000176  1.001967  0.0  0.117756  0.106353  -0.000206  1.010386  0.0
H  H5  1  0.29072147  0.72872790  0.48774131  1  0.09666  0.000262  0.947843  0.0  0.108559  0.00024  1.008721  0.0  0.111885  0.000187  1.003569  0.0  0.117648  0.106395  0.000219  1.011901  0.0
H  H6  1  0.30490883  0.24094254  0.51231804  1  0.096532  -0.000249  0.946081  0.0  0.108581  -0.000226  1.006848  0.0  0.111904  -0.000176  1.00165  0.0  0.117707  0.1064  -0.000206  1.010066  0.0
H  H7  1  0.70931458  0.27127646  0.51229036  1  0.096673  0.000262  0.948075  0.0  0.108534  0.000239  1.008996  0.0  0.111851  0.000186  1.003826  0.0  0.117673  0.106361  0.000219  1.012198  0.0
C  C8  1  0.86729512  0.77734375  0.53887361  1  0.221549  -0.003516  3.659814  -0.003  0.172624  -0.001426  3.919533  -0.001  0.191983  -0.001642  3.928221  -0.001  0.13425  0.161477  -0.001088  3.912388  -0.001
C  C9  1  0.16989791  0.76158898  0.53892916  1  0.220359  0.003517  3.662452  0.003  0.17161  0.001423  3.922348  0.001  0.190894  0.001654  3.93103  0.001  0.134143  0.16047  0.00107  3.915204  0.001
C  C10  1  0.13269466  0.22264709  0.46109224  1  0.221373  -0.003516  3.659562  -0.003  0.172447  -0.001426  3.919294  -0.001  0.191804  -0.001643  3.927983  -0.001  0.134289  0.161295  -0.001088  3.912146  -0.001
C  C11  1  0.83011370  0.23841659  0.46109821  1  0.220366  0.003514  3.662107  0.003  0.171632  0.001423  3.922083  0.001  0.190953  0.001654  3.930732  0.001  0.13409  0.160482  0.00107  3.914933  0.001
Br  Br12  1  0.25594976  0.80601199  0.14993969  1  -0.443635  0.081413  1.442651  0.083  -0.427164  0.072192  1.870912  0.076  -0.461997  0.064777  1.831686  0.07  -0.207653  -0.413665  0.060352  1.899657  0.062
Br  Br13  1  0.39446010  0.34271288  0.14956064  1  -0.442705  -0.081729  1.448538  -0.083  -0.42616  -0.072373  1.877213  -0.076  -0.460945  -0.064912  1.837688  -0.07  -0.206642  -0.412635  -0.060582  1.906065  -0.062
Br  Br14  1  0.74396298  0.19395205  0.85005670  1  -0.443669  0.081327  1.442749  0.083  -0.427189  0.07215  1.870982  0.076  -0.461998  0.064749  1.831715  0.07  -0.207632  -0.413694  0.060307  1.899743  0.062
Br  Br15  1  0.60547242  0.65727386  0.85047150  1  -0.442775  -0.081838  1.448852  -0.083  -0.426177  -0.072457  1.877444  -0.076  -0.461038  -0.064938  1.838033  -0.07  -0.20663  -0.412668  -0.060622  1.906317  -0.062
N  N16  1  0.02327365  0.87567981  0.74205209  1  -0.254891  0.03848  3.34806  0.05  -0.19984  0.033339  3.645196  0.045  -0.234223  0.034671  3.678946  0.048  -0.299091  -0.182909  0.028104  3.628437  0.037
N  N17  1  0.21772928  0.86639897  0.74206024  1  -0.25375  -0.03889  3.34723  -0.051  -0.199497  -0.033684  3.644511  -0.045  -0.23362  -0.034838  3.678202  -0.049  -0.299248  -0.182575  -0.028431  3.627711  -0.037
N  N18  1  0.97672810  0.12432400  0.25794061  1  -0.254638  0.038486  3.348294  0.05  -0.199522  0.033343  3.645358  0.045  -0.233896  0.034673  3.67912  0.048  -0.29914  -0.1826  0.028107  3.628607  0.037
N  N19  1  0.78226413  0.13358873  0.25792608  1  -0.253811  -0.038897  3.346733  -0.051  -0.199647  -0.033691  3.644144  -0.045  -0.233787  -0.034849  3.677824  -0.049  -0.299233  -0.182719  -0.028437  3.62735  -0.037
N  N20  1  0.95175608  0.70286709  0.40567851  1  -0.373269  4.6e-05  3.310002  0.0  -0.294226  4.6e-05  3.624473  0.0  -0.306444  1.9e-05  3.623273  0.0  -0.393625  -0.285231  6.3e-05  3.621893  0.0
N  N21  1  0.04826074  0.29712577  0.59431540  1  -0.373215  5.2e-05  3.309706  0.0  -0.294083  4.9e-05  3.624051  0.0  -0.3063  2.1e-05  3.622838  0.0  -0.393511  -0.285075  6.9e-05  3.62145  0.0
