# generated using pymatgen
data_CuH4C6(N3O)2
_symmetry_space_group_name_H-M   'P 1'
_cell_length_a   5.94205982
_cell_length_b   6.85812599
_cell_length_c   10.42493771
_cell_angle_alpha   89.99844284
_cell_angle_beta   88.26451893
_cell_angle_gamma   89.99823680
_symmetry_Int_Tables_number   1
_chemical_formula_structural   CuH4C6(N3O)2
_chemical_formula_sum   'Cu2 H8 C12 N12 O4'
_cell_volume   424.63588207
_cell_formula_units_Z   2
loop_
 _symmetry_equiv_pos_site_id
 _symmetry_equiv_pos_as_xyz
  1  'x, y, z'
loop_
 _atom_site_type_symbol
 _atom_site_label
 _atom_site_symmetry_multiplicity
 _atom_site_fract_x
 _atom_site_fract_y
 _atom_site_fract_z
 _atom_site_occupancy
 _atom_site_hle17_ddec_charge
 _atom_site_hle17_ddec_spin_density
 _atom_site_hle17_ddec_sum_bond_order
 _atom_site_hle17_magmom
 _atom_site_hse06_10hf_ddec_charge
 _atom_site_hse06_10hf_ddec_spin_density
 _atom_site_hse06_10hf_ddec_sum_bond_order
 _atom_site_hse06_10hf_magmom
 _atom_site_hse06_ddec_charge
 _atom_site_hse06_ddec_spin_density
 _atom_site_hse06_ddec_sum_bond_order
 _atom_site_hse06_magmom
 _atom_site_pbe_cm5_charge
 _atom_site_pbe_ddec_charge
 _atom_site_pbe_ddec_spin_density
 _atom_site_pbe_ddec_sum_bond_order
 _atom_site_pbe_magmom
Cu  Cu0  1  0.59350566  0.24998459  0.75260872  1  0.786706  -0.711942  1.839247  -0.503  0.739298  -0.792292  2.232117  -0.61  0.827552  -0.86619  2.169317  -0.693  0.766162  0.684291  -0.737812  2.276944  -0.555
Cu  Cu1  1  0.40648839  0.75001541  0.24738716  1  0.786674  0.711956  1.839269  0.503  0.739245  0.792306  2.232151  0.611  0.82759  0.866208  2.169337  0.693  0.766129  0.684249  0.737826  2.276991  0.555
H  H2  1  0.35952884  0.56923943  0.61204638  1  0.094785  -0.001652  0.986729  -0.002  0.090596  -0.001371  1.068033  -0.002  0.092038  -0.000983  1.067531  -0.002  0.121954  0.089443  -0.001775  1.068881  -0.003
H  H3  1  0.64048500  0.06925948  0.38796384  1  0.094907  0.001644  0.98675  0.002  0.090669  0.001371  1.068082  0.002  0.092116  0.000984  1.06757  0.002  0.121973  0.08951  0.001774  1.068932  0.003
H  H4  1  0.64046995  0.43076494  0.38795158  1  0.094806  0.001648  0.986751  0.002  0.090612  0.001372  1.068048  0.002  0.09205  0.000984  1.067551  0.002  0.121959  0.089456  0.001775  1.068898  0.003
H  H5  1  0.35952326  0.93074489  0.61203829  1  0.094864  -0.001644  0.986737  -0.002  0.090637  -0.001371  1.068057  -0.002  0.092084  -0.000983  1.067546  -0.002  0.12197  0.089482  -0.001775  1.068904  -0.003
H  H6  1  0.82940125  0.56692084  0.90139248  1  0.112115  -0.001685  0.950252  -0.002  0.116118  -0.001387  1.014668  -0.002  0.118757  -0.000991  1.012284  -0.002  0.126881  0.114066  -0.001804  1.016669  -0.003
H  H7  1  0.17060742  0.06696602  0.09860799  1  0.111966  0.001681  0.950434  0.002  0.116115  0.001387  1.01474  0.002  0.118742  0.000991  1.012369  0.002  0.126907  0.114067  0.001803  1.016747  0.003
H  H8  1  0.17059906  0.43307915  0.09860650  1  0.112118  0.001686  0.95026  0.002  0.11612  0.001388  1.014681  0.002  0.118758  0.000991  1.012302  0.002  0.126891  0.114068  0.001804  1.016683  0.003
H  H9  1  0.82939807  0.93303398  0.90139019  1  0.111963  -0.001694  0.950439  -0.003  0.116125  -0.001388  1.014738  -0.002  0.118743  -0.00099  1.012378  -0.002  0.1269  0.114076  -0.001804  1.01674  -0.003
C  C10  1  0.12659585  0.24997738  0.84003533  1  0.594763  0.00528  3.944491  0.008  0.55858  0.000294  4.244042  0.002  0.594934  0.000315  4.236691  0.002  0.209864  0.533908  0.000302  4.247739  0.003
C  C11  1  0.87339944  0.75001678  0.15996348  1  0.594898  -0.005282  3.944396  -0.008  0.558772  -0.000292  4.243867  -0.002  0.59513  -0.000321  4.236506  -0.002  0.209972  0.534098  -0.000301  4.247565  -0.003
C  C12  1  0.08477119  0.24998503  0.69995282  1  0.127027  0.002447  3.819564  0.001  0.114499  -2e-05  4.085984  -0.001  0.119903  0.000894  4.103586  0.0  0.193282  0.11125  -0.000788  4.074016  -0.002
C  C13  1  0.91522351  0.75001788  0.30004982  1  0.127126  -0.002451  3.819492  -0.001  0.114554  1.6e-05  4.085921  0.001  0.119957  -0.000892  4.103528  0.0  0.193365  0.11131  0.000789  4.073948  0.002
C  C14  1  0.46405814  0.64879349  0.67779725  1  0.092511  -0.001295  3.653367  -0.002  0.062002  -0.002705  3.914143  -0.003  0.065757  -0.001331  3.93279  -0.001  0.060582  0.059327  -0.004027  3.902444  -0.004
C  C15  1  0.53593950  0.14879990  0.32221108  1  0.092284  0.001295  3.653658  0.002  0.061818  0.002704  3.914278  0.003  0.065574  0.001329  3.932932  0.001  0.060514  0.059151  0.004027  3.902573  0.004
C  C16  1  0.53594553  0.35120796  0.32220184  1  0.092375  0.001316  3.653553  0.002  0.061907  0.002705  3.914288  0.003  0.065666  0.001332  3.932943  0.001  0.060531  0.059237  0.004027  3.90259  0.004
C  C17  1  0.46407059  0.85120155  0.67779014  1  0.092298  -0.001312  3.653561  -0.002  0.061852  -0.002703  3.914189  -0.003  0.065604  -0.001332  3.932836  -0.001  0.060533  0.059182  -0.004026  3.902487  -0.004
C  C18  1  0.72472907  0.64828683  0.83630191  1  0.106635  -0.001895  3.595599  -0.002  0.079937  -0.003052  3.84652  -0.003  0.08577  -0.001563  3.861177  -0.002  0.068786  0.07596  -0.004445  3.837406  -0.005
C  C19  1  0.27526882  0.14832962  0.16369392  1  0.106735  0.001875  3.595328  0.002  0.079697  0.003049  3.846278  0.003  0.085536  0.001558  3.860948  0.002  0.06859  0.075705  0.004444  3.837182  0.005
C  C20  1  0.27527628  0.35171754  0.16369723  1  0.106717  0.001887  3.595511  0.002  0.080005  0.00305  3.846428  0.003  0.085838  0.00156  3.861099  0.002  0.068825  0.076028  0.004444  3.837323  0.005
C  C21  1  0.72473332  0.85166892  0.83630415  1  0.106786  -0.001844  3.59549  -0.002  0.079713  -0.003051  3.846457  -0.003  0.085556  -0.001564  3.861124  -0.002  0.068608  0.07573  -0.004444  3.837348  -0.005
N  N22  1  0.24106134  0.24999358  0.60454308  1  -0.315341  -0.003812  3.058902  -0.005  -0.288647  -0.001736  3.358308  -0.003  -0.301814  -0.000665  3.370499  -0.001  -0.224775  -0.280279  -0.002203  3.350886  -0.003
N  N23  1  0.75893197  0.75000933  0.39545760  1  -0.315514  0.003802  3.059034  0.005  -0.288818  0.001733  3.358463  0.003  -0.301995  0.000668  3.37067  0.001  -0.224864  -0.28045  0.002203  3.351039  0.003
N  N24  1  0.12532260  0.24999287  0.49483235  1  -0.069059  -0.010803  2.914027  -0.013  -0.067091  -0.005398  3.224817  -0.007  -0.066909  -0.003494  3.236441  -0.005  -0.095985  -0.066008  -0.007225  3.216249  -0.009
N  N25  1  0.87467436  0.75000567  0.50516652  1  -0.068998  0.010832  2.914033  0.013  -0.067014  0.0054  3.224806  0.007  -0.066832  0.003501  3.236432  0.005  -0.095956  -0.065929  0.007225  3.216238  0.009
N  N26  1  0.90677619  0.24998638  0.52279024  1  -0.06796  0.002498  2.940314  0.003  -0.054797  -9.6e-05  3.247934  0.0  -0.05184  0.000684  3.25961  0.001  -0.085403  -0.056219  -0.000773  3.240205  -0.001
N  N27  1  0.09322260  0.75001653  0.47720772  1  -0.067931  -0.002517  2.940266  -0.003  -0.054791  9.4e-05  3.247893  0.0  -0.051834  -0.000691  3.259574  -0.001  -0.085422  -0.056209  0.000773  3.240162  0.001
N  N28  1  0.87807064  0.24998136  0.65068867  1  -0.274169  -0.076126  3.33528  -0.094  -0.2466  -0.055072  3.664867  -0.072  -0.274747  -0.047007  3.685302  -0.065  -0.256266  -0.229931  -0.058568  3.653107  -0.074
N  N29  1  0.12192129  0.75002593  0.34931004  1  -0.274268  0.076139  3.335292  0.094  -0.246666  0.055074  3.664867  0.072  -0.274836  0.047001  3.685335  0.065  -0.256276  -0.229997  0.058569  3.653114  0.074
N  N30  1  0.59354254  0.54779034  0.75719846  1  -0.234726  -0.073762  3.311919  -0.092  -0.187581  -0.056233  3.599088  -0.075  -0.213214  -0.046956  3.621412  -0.066  -0.316828  -0.172198  -0.061565  3.585857  -0.079
N  N31  1  0.40644836  0.04781493  0.24280175  1  -0.234759  0.0738  3.31191  0.092  -0.187397  0.056246  3.59891  0.075  -0.213054  0.046965  3.62127  0.066  -0.316823  -0.172014  0.061578  3.585682  0.079
N  N32  1  0.40645567  0.45220966  0.24280333  1  -0.234674  0.073755  3.312066  0.092  -0.187538  0.056235  3.599206  0.075  -0.213195  0.046958  3.621563  0.066  -0.316817  -0.172158  0.061567  3.585983  0.079
N  N33  1  0.59355714  0.95218361  0.75719643  1  -0.234797  -0.07379  3.311856  -0.092  -0.187442  -0.056244  3.598877  -0.075  -0.213075  -0.046965  3.6212  -0.066  -0.316849  -0.17206  -0.061578  3.585644  -0.079
O  O34  1  0.33340969  0.24997252  0.87456984  1  -0.556278  -0.102962  2.055708  -0.136  -0.535207  -0.061577  2.328604  -0.089  -0.578356  -0.047268  2.32137  -0.072  -0.322877  -0.506463  -0.070473  2.333705  -0.098
O  O35  1  0.66658289  0.75000998  0.12543562  1  -0.556299  0.102943  2.055771  0.136  -0.535238  0.061564  2.328662  0.089  -0.578405  0.047266  2.321433  0.072  -0.322898  -0.506501  0.07046  2.333768  0.098
O  O36  1  0.95996041  0.24997801  0.91685556  1  -0.56812  -0.018972  1.885849  -0.025  -0.541987  -0.007632  2.108248  -0.011  -0.566731  -0.003178  2.096777  -0.005  -0.306529  -0.523551  -0.012654  2.115326  -0.017
O  O37  1  0.04005369  0.75001907  0.08315253  1  -0.568166  0.018957  1.885845  0.025  -0.542055  0.007631  2.108262  0.011  -0.566814  0.003175  2.096795  0.005  -0.30661  -0.523628  0.012647  2.115351  0.017
