# generated using pymatgen
data_FeH4(C3N2)2
_symmetry_space_group_name_H-M   'P 1'
_cell_length_a   6.95079701
_cell_length_b   9.16417216
_cell_length_c   9.16409170
_cell_angle_alpha   90.02915006
_cell_angle_beta   90.00065875
_cell_angle_gamma   90.00030154
_symmetry_Int_Tables_number   1
_chemical_formula_structural   FeH4(C3N2)2
_chemical_formula_sum   'Fe2 H8 C12 N8'
_cell_volume   583.73699072
_cell_formula_units_Z   2
loop_
 _symmetry_equiv_pos_site_id
 _symmetry_equiv_pos_as_xyz
  1  'x, y, z'
loop_
 _atom_site_type_symbol
 _atom_site_label
 _atom_site_symmetry_multiplicity
 _atom_site_fract_x
 _atom_site_fract_y
 _atom_site_fract_z
 _atom_site_occupancy
 _atom_site_pbe_bader_charge
 _atom_site_pbe_bader_spin_density
 _atom_site_pbe_cm5_charge
 _atom_site_pbe_ddec_charge
 _atom_site_pbe_ddec_spin_density
 _atom_site_pbe_ddec_sum_bond_order
 _atom_site_pbe_magmom
Fe  Fe0  1  0.75000131  0.50000291  0.50000114  1  1.210545  3.483236  0.726429  0.536  3.767974  2.886867  3.391
Fe  Fe1  1  0.24999535  0.50000333  0.49999356  1  1.210592  3.483236  0.726546  0.536265  3.768004  2.886872  3.391
H  H2  1  0.81142308  0.50092928  0.14911628  1  0.057278  0.002178  0.11709  0.102937  0.000642  1.007894  0.001
H  H3  1  0.81142158  0.49907589  0.85088788  1  0.057214  0.002178  0.117082  0.102929  0.000642  1.007908  0.001
H  H4  1  0.31144987  0.14911008  0.50090040  1  0.05466  0.002207  0.117126  0.102903  0.000641  1.008069  0.001
H  H5  1  0.31145190  0.85089703  0.49908969  1  0.054683  0.002207  0.117089  0.102881  0.000641  1.008075  0.001
H  H6  1  0.18854775  0.50090525  0.14910248  1  0.054651  0.002208  0.117109  0.102917  0.000641  1.007978  0.001
H  H7  1  0.18855056  0.49908571  0.85088714  1  0.0547  0.002207  0.117143  0.102943  0.000641  1.008064  0.001
H  H8  1  0.68857988  0.85088852  0.49908994  1  0.057473  0.002177  0.117101  0.102966  0.000641  1.007938  0.001
H  H9  1  0.68857785  0.14910817  0.50092902  1  0.057181  0.002178  0.117107  0.103009  0.000641  1.007904  0.001
C  C10  1  0.49998370  0.49991376  0.07907461  1  -0.050744  0.022514  -0.033744  -0.01635  0.010049  4.126473  0.013
C  C11  1  0.49998707  0.50008267  0.92092337  1  0.112021  0.022053  -0.033668  -0.016274  0.010051  4.126288  0.013
C  C12  1  0.00001502  0.07907477  0.49991956  1  0.112  0.022048  -0.033706  -0.016196  0.010048  4.126168  0.013
C  C13  1  0.00001430  0.92092692  0.50008836  1  -0.050804  0.022517  -0.03371  -0.01632  0.01005  4.126352  0.013
C  C14  1  0.65877018  0.49988965  0.17410104  1  0.416595  0.031583  0.008118  -0.052825  0.015886  3.965262  0.021
C  C15  1  0.65876848  0.50010680  0.82589571  1  0.416704  0.031573  0.008113  -0.0528  0.015881  3.965465  0.021
C  C16  1  0.15879833  0.17410410  0.49988338  1  0.416047  0.031579  0.007975  -0.052878  0.015882  3.965289  0.021
C  C17  1  0.15879745  0.82589868  0.50011349  1  0.416337  0.031581  0.007985  -0.052862  0.015883  3.965397  0.021
C  C18  1  0.34120660  0.49988963  0.17410009  1  0.416372  0.031579  0.007987  -0.05286  0.015882  3.96548  0.021
C  C19  1  0.34119914  0.50011223  0.82589149  1  0.416007  0.03158  0.007937  -0.052934  0.015883  3.965287  0.021
C  C20  1  0.84122998  0.82589998  0.50011678  1  0.41647  0.03158  0.008057  -0.052951  0.015884  3.96548  0.021
C  C21  1  0.84122798  0.17410105  0.49989649  1  0.416693  0.031578  0.008028  -0.053045  0.015883  3.965444  0.021
N  N22  1  0.59843953  0.49955687  0.31414895  1  -0.87576  0.084977  -0.289865  -0.175792  0.036447  3.6414  0.043
N  N23  1  0.59844102  0.50044680  0.68585029  1  -0.875794  0.084971  -0.289904  -0.175972  0.036451  3.641569  0.043
N  N24  1  0.09844997  0.31415207  0.49954478  1  -0.704686  0.083578  -0.289918  -0.175994  0.036456  3.641429  0.043
N  N25  1  0.09845605  0.68585137  0.50045022  1  -0.705043  0.083585  -0.28992  -0.176013  0.036459  3.64158  0.043
N  N26  1  0.40154557  0.49955836  0.31414986  1  -0.705023  0.083584  -0.289956  -0.176111  0.036461  3.641695  0.043
N  N27  1  0.40154706  0.50044828  0.68584357  1  -0.704768  0.083582  -0.289932  -0.175947  0.036457  3.641341  0.043
N  N28  1  0.90156107  0.68585091  0.50045429  1  -0.875761  0.084974  -0.289865  -0.175787  0.036451  3.64144  0.043
N  N29  1  0.90155787  0.31414834  0.49955431  1  -0.875835  0.084973  -0.289836  -0.175838  0.036447  3.641532  0.043
