# generated using pymatgen
data_HoH2CO4
_symmetry_space_group_name_H-M   'P 1'
_cell_length_a   6.15693278
_cell_length_b   6.97156121
_cell_length_c   7.55940751
_cell_angle_alpha   89.99997599
_cell_angle_beta   100.01074084
_cell_angle_gamma   90.00001678
_symmetry_Int_Tables_number   1
_chemical_formula_structural   HoH2CO4
_chemical_formula_sum   'Ho4 H8 C4 O16'
_cell_volume   319.53564407
_cell_formula_units_Z   4
loop_
 _symmetry_equiv_pos_site_id
 _symmetry_equiv_pos_as_xyz
  1  'x, y, z'
loop_
 _atom_site_type_symbol
 _atom_site_label
 _atom_site_symmetry_multiplicity
 _atom_site_fract_x
 _atom_site_fract_y
 _atom_site_fract_z
 _atom_site_occupancy
 _atom_site_pbe_bader_spin_density
 _atom_site_pbe_cm5_charge
 _atom_site_pbe_ddec_charge
 _atom_site_pbe_ddec_spin_density
 _atom_site_pbe_ddec_sum_bond_order
 _atom_site_pbe_magmom
Ho  Ho0  1  0.76805756  0.11481224  0.10762821  1  0  1.461114  2.187347  0  2.079758  0
Ho  Ho1  1  0.73194256  0.61481053  0.89237195  1  0  1.461115  2.187355  0  2.079738  0
Ho  Ho2  1  0.23194315  0.88518893  0.89237212  1  0  1.4611  2.187355  0  2.079742  0
Ho  Ho3  1  0.26805816  0.38518776  0.10762837  1  0  1.461116  2.187351  0  2.079753  0
H  H4  1  0.96238814  0.22883964  0.80626835  1  0  0.302565  0.394615  0  0.940498  0
H  H5  1  0.53761366  0.72883821  0.19373333  1  0  0.30256  0.394597  0  0.940513  0
H  H6  1  0.03761423  0.77116008  0.19373354  1  0  0.302559  0.394599  0  0.940514  0
H  H7  1  0.46238706  0.27116152  0.80626832  1  0  0.302571  0.39461  0  0.940501  0
H  H8  1  0.88872263  0.47656333  0.25488641  1  0  0.313488  0.415696  0  0.900217  0
H  H9  1  0.61128089  0.97656309  0.74511409  1  0  0.313492  0.415704  0  0.900202  0
H  H10  1  0.11128139  0.52343784  0.74511438  1  0  0.313489  0.415714  0  0.900185  0
H  H11  1  0.38872313  0.02343520  0.25488670  1  0  0.313495  0.415701  0  0.900204  0
C  C12  1  0.09859139  0.06768345  0.49141417  1  0  0.225013  0.517239  0  4.193643  0
C  C13  1  0.40140984  0.56767909  0.50858378  1  0  0.225077  0.517347  0  4.193243  0
C  C14  1  0.90141098  0.93232058  0.50858506  1  0  0.225109  0.517376  0  4.19322  0
C  C15  1  0.59859087  0.43231633  0.49141390  1  0  0.224996  0.517219  0  4.193666  0
O  O16  1  0.08877167  0.15330132  0.34220372  1  0  -0.360232  -0.650417  0  2.418334  0
O  O17  1  0.41122794  0.65330120  0.65779663  1  0  -0.360246  -0.650474  0  2.418107  0
O  O18  1  0.91122740  0.84669841  0.65779770  1  0  -0.360274  -0.650494  0  2.418104  0
O  O19  1  0.58877113  0.34669853  0.34220479  1  0  -0.360219  -0.650399  0  2.418362  0
O  O20  1  0.03091666  0.16745009  0.91800939  1  0  -0.783946  -1.136858  0  2.088333  0
O  O21  1  0.46908460  0.66744882  0.08199118  1  0  -0.783955  -1.136829  0  2.088348  0
O  O22  1  0.96908406  0.83255107  0.08199094  1  0  -0.783947  -1.136838  0  2.088352  0
O  O23  1  0.53091612  0.33255091  0.91800915  1  0  -0.783963  -1.136851  0  2.088345  0
O  O24  1  0.25196130  0.08049979  0.62568590  1  0  -0.342984  -0.580583  0  2.282782  0
O  O25  1  0.24803332  0.58049976  0.37430981  1  0  -0.343029  -0.580639  0  2.28274  0
O  O26  1  0.74803446  0.91949994  0.37431109  1  0  -0.343026  -0.580635  0  2.282672  0
O  O27  1  0.75196079  0.41950140  0.62568562  1  0  -0.342981  -0.580579  0  2.282801  0
O  O28  1  0.90153447  0.43364901  0.13481328  1  0  -0.815012  -1.147047  0  2.182967  0
O  O29  1  0.59846573  0.93364872  0.86518677  1  0  -0.815014  -1.147058  0  2.182974  0
O  O30  1  0.09846625  0.56635216  0.86518705  1  0  -0.815011  -1.147064  0  2.182982  0
O  O31  1  0.40153498  0.06635101  0.13481356  1  0  -0.81502  -1.147057  0  2.182971  0
