# generated using pymatgen
data_CdH6C6INO3
_symmetry_space_group_name_H-M   'P 1'
_cell_length_a   7.41654003
_cell_length_b   8.07622501
_cell_length_c   8.91180958
_cell_angle_alpha   104.76851339
_cell_angle_beta   91.70136248
_cell_angle_gamma   114.83755862
_symmetry_Int_Tables_number   1
_chemical_formula_structural   CdH6C6INO3
_chemical_formula_sum   'Cd2 H12 C12 I2 N2 O6'
_cell_volume   462.69387001
_cell_formula_units_Z   2
loop_
 _symmetry_equiv_pos_site_id
 _symmetry_equiv_pos_as_xyz
  1  'x, y, z'
loop_
 _atom_site_type_symbol
 _atom_site_label
 _atom_site_symmetry_multiplicity
 _atom_site_fract_x
 _atom_site_fract_y
 _atom_site_fract_z
 _atom_site_occupancy
 _atom_site_hle17_bader_spin_density
 _atom_site_hle17_ddec_charge
 _atom_site_hle17_ddec_spin_density
 _atom_site_hle17_ddec_sum_bond_order
 _atom_site_hle17_magmom
 _atom_site_hse06_10hf_bader_spin_density
 _atom_site_hse06_10hf_ddec_charge
 _atom_site_hse06_10hf_ddec_spin_density
 _atom_site_hse06_10hf_ddec_sum_bond_order
 _atom_site_hse06_10hf_magmom
 _atom_site_hse06_bader_spin_density
 _atom_site_hse06_ddec_charge
 _atom_site_hse06_ddec_spin_density
 _atom_site_hse06_ddec_sum_bond_order
 _atom_site_hse06_magmom
 _atom_site_pbe_bader_spin_density
 _atom_site_pbe_cm5_charge
 _atom_site_pbe_ddec_charge
 _atom_site_pbe_ddec_spin_density
 _atom_site_pbe_ddec_sum_bond_order
 _atom_site_pbe_magmom
Cd  Cd0  1  0.29182933  0.88508140  0.13329307  1  0  0.948349  0  1.879554  0  0  0.784119  0  2.323208  0  0  0.837686  0  2.278367  0  0  0.605659  0.746898  0  2.353138  0
Cd  Cd1  1  0.70817176  0.11491939  0.86670615  1  0  0.948371  0  1.879557  0  0  0.784141  0  2.323213  0  0  0.83771  0  2.278372  0  0  0.605669  0.746921  0  2.35314  0
H  H2  1  0.87711405  0.82282193  0.11974421  1  0  0.374114  0  0.930266  0  0  0.344194  0  1.006825  0  0  0.354808  0  0.991281  0  0  0.259312  0.336635  0  1.017891  0
H  H3  1  0.12288774  0.17717745  0.88025471  1  0  0.374132  0  0.930245  0  0  0.344217  0  1.006792  0  0  0.354831  0  0.991248  0  0  0.259327  0.336658  0  1.017856  0
H  H4  1  0.85671683  0.61825544  0.02487989  1  0  0.427219  0  0.876411  0  0  0.393701  0  0.943703  0  0  0.405653  0  0.926521  0  0  0.281769  0.385273  0  0.95578  0
H  H5  1  0.14328496  0.38174394  0.97511903  1  0  0.427206  0  0.876435  0  0  0.393688  0  0.943727  0  0  0.40564  0  0.926545  0  0  0.281759  0.385258  0  0.955806  0
H  H6  1  0.20286251  0.57342893  0.55695179  1  0  0.10317  0  0.954427  0  0  0.110533  0  1.022361  0  0  0.113865  0  1.019382  0  0  0.100221  0.108032  0  1.024595  0
H  H7  1  0.79713793  0.42657046  0.44304935  1  0  0.103186  0  0.954426  0  0  0.110553  0  1.022362  0  0  0.113887  0  1.019382  0  0  0.100221  0.10806  0  1.024589  0
H  H8  1  0.17328640  0.29961552  0.65785988  1  0  0.118926  0  0.974701  0  0  0.128682  0  1.031279  0  0  0.132532  0  1.029689  0  0  0.104782  0.125877  0  1.032635  0
H  H9  1  0.82670997  0.70038381  0.34213889  1  0  0.118935  0  0.974687  0  0  0.128679  0  1.031278  0  0  0.132529  0  1.02969  0  0  0.104773  0.125874  0  1.032637  0
H  H10  1  0.23354699  0.03527616  0.48185527  1  0  0.094976  0  0.940939  0  0  0.102334  0  1.007265  0  0  0.105237  0  1.004409  0  0  0.115065  0.100214  0  1.009318  0
H  H11  1  0.76645009  0.96472177  0.51814433  1  0  0.094956  0  0.940961  0  0  0.102328  0  1.007267  0  0  0.105228  0  1.004414  0  0  0.115064  0.100206  0  1.00932  0
H  H12  1  0.34184481  0.29591007  0.12732676  1  0  0.07146  0  0.963462  0  0  0.077325  0  1.036054  0  0  0.080436  0  1.032414  0  0  0.107446  0.075036  0  1.038653  0
H  H13  1  0.65815357  0.70409071  0.87267351  1  0  0.07144  0  0.963476  0  0  0.077342  0  1.036012  0  0  0.080453  0  1.032372  0  0  0.107459  0.075054  0  1.038612  0
C  C14  1  0.28099437  0.60956226  0.26816062  1  0  0.642383  0  3.905263  0  0  0.591399  0  4.191525  0  0  0.625917  0  4.187157  0  0  0.196946  0.568085  0  4.193646  0
C  C15  1  0.71900738  0.39043999  0.73184118  1  0  0.642513  0  3.905388  0  0  0.591532  0  4.191631  0  0  0.62605  0  4.187261  0  0  0.196987  0.568219  0  4.19375  0
C  C16  1  0.27163434  0.45387233  0.33405261  1  0  -0.111834  0  3.756739  0  0  -0.083351  0  3.989941  0  0  -0.096242  0  4.01343  0  0  -0.014691  -0.075318  0  3.974399  0
C  C17  1  0.72836812  0.54612850  0.66594890  1  0  -0.111881  0  3.756858  0  0  -0.083377  0  3.990038  0  0  -0.096269  0  4.013529  0  0  -0.014679  -0.075348  0  3.974502  0
C  C18  1  0.22627261  0.45484289  0.48543231  1  0  0.007571  0  3.66338  0  0  -0.023349  0  3.91177  0  0  -0.017061  0  3.928211  0  0  -0.057129  -0.026989  0  3.900399  0
C  C19  1  0.77372512  0.54515645  0.51456650  1  0  0.007542  0  3.663434  0  0  -0.023406  0  3.911844  0  0  -0.017117  0  3.928281  0  0  -0.057135  -0.027049  0  3.900469  0
C  C20  1  0.21128346  0.30412993  0.54121839  1  0  -0.117233  0  3.705135  0  0  -0.126205  0  3.956504  0  0  -0.135133  0  3.977548  0  0  -0.083262  -0.120573  0  3.942412  0
C  C21  1  0.78871361  0.69586797  0.45877896  1  0  -0.117216  0  3.705127  0  0  -0.126181  0  3.956503  0  0  -0.135109  0  3.977546  0  0  -0.083244  -0.120549  0  3.942416  0
C  C22  1  0.24240127  0.15651337  0.44425722  1  0  0.142217  0  3.658387  0  0  0.10537  0  3.914902  0  0  0.11464  0  3.93186  0  0  0.04899  0.099473  0  3.903208  0
C  C23  1  0.75759647  0.84348600  0.55574384  1  0  0.142223  0  3.658439  0  0  0.105386  0  3.914919  0  0  0.114656  0  3.931877  0  0  0.048996  0.09949  0  3.903229  0
C  C24  1  0.30236546  0.30120994  0.24492948  1  0  0.113453  0  3.707569  0  0  0.072166  0  3.958059  0  0  0.080994  0  3.976291  0  0  0.045279  0.06658  0  3.945684  0
C  C25  1  0.69763498  0.69878944  0.75507053  1  0  0.113452  0  3.707643  0  0  0.072139  0  3.958129  0  0  0.080968  0  3.976361  0  0  0.045246  0.066555  0  3.945755  0
I  I26  1  0.74109755  0.07235638  0.17462005  1  0  -0.44932  0  1.193373  0  0  -0.391691  0  1.531679  0  0  -0.41523  0  1.506932  0  0  -0.144424  -0.375339  0  1.548432  0
I  I27  1  0.25890420  0.92764585  0.82538063  1  0  -0.449321  0  1.193373  0  0  -0.391696  0  1.531688  0  0  -0.41523  0  1.506936  0  0  -0.144427  -0.375343  0  1.54844  0
N  N28  1  0.28684974  0.15558422  0.29851567  1  0  -0.332308  0  3.299119  0  0  -0.248683  0  3.563419  0  0  -0.27122  0  3.584456  0  0  -0.336497  -0.233531  0  3.548642  0
N  N29  1  0.71315070  0.84441515  0.70148321  1  0  -0.332288  0  3.299162  0  0  -0.248671  0  3.56347  0  0  -0.271209  0  3.584509  0  0  -0.336488  -0.23352  0  3.548695  0
O  O30  1  0.27385308  0.58076866  0.11807519  1  0  -0.648822  0  2.007298  0  0  -0.571159  0  2.233063  0  0  -0.601918  0  2.222475  0  0  -0.329598  -0.549646  0  2.239496  0
O  O31  1  0.72614937  0.41923216  0.88192519  1  0  -0.648861  0  2.007385  0  0  -0.571201  0  2.233151  0  0  -0.60196  0  2.22256  0  0  -0.329621  -0.54969  0  2.239584  0
O  O32  1  0.29505995  0.76335829  0.35980197  1  0  -0.583518  0  1.929864  0  0  -0.52791  0  2.161519  0  0  -0.555226  0  2.154702  0  0  -0.314643  -0.508971  0  2.16544  0
O  O33  1  0.70494115  0.23664253  0.64019950  1  0  -0.58358  0  1.929932  0  0  -0.527981  0  2.161592  0  0  -0.555298  0  2.154775  0  0  -0.314659  -0.509042  0  2.165511  0
O  O34  1  0.93542937  0.73316153  0.11779786  1  0  -0.800803  0  1.926195  0  0  -0.737476  0  2.113212  0  0  -0.759742  0  2.080448  0  0  -0.585231  -0.721737  0  2.135932  0
O  O35  1  0.06457444  0.26683930  0.88220256  1  0  -0.800811  0  1.9262  0  0  -0.737491  0  2.113215  0  0  -0.759757  0  2.08045  0  0  -0.585243  -0.721753  0  2.135936  0
