# generated using pymatgen
data_BaPH3(CO3)2
_symmetry_space_group_name_H-M   'P 1'
_cell_length_a   4.76241765
_cell_length_b   7.42778975
_cell_length_c   8.44640777
_cell_angle_alpha   83.14074375
_cell_angle_beta   86.37707749
_cell_angle_gamma   78.72447233
_symmetry_Int_Tables_number   1
_chemical_formula_structural   BaPH3(CO3)2
_chemical_formula_sum   'Ba2 P2 H6 C4 O12'
_cell_volume   290.67727983
_cell_formula_units_Z   2
loop_
 _symmetry_equiv_pos_site_id
 _symmetry_equiv_pos_as_xyz
  1  'x, y, z'
loop_
 _atom_site_type_symbol
 _atom_site_label
 _atom_site_symmetry_multiplicity
 _atom_site_fract_x
 _atom_site_fract_y
 _atom_site_fract_z
 _atom_site_occupancy
 _atom_site_hle17_bader_spin_density
 _atom_site_hle17_ddec_charge
 _atom_site_hle17_ddec_spin_density
 _atom_site_hle17_ddec_sum_bond_order
 _atom_site_hle17_magmom
 _atom_site_hse06_10hf_bader_spin_density
 _atom_site_hse06_10hf_ddec_charge
 _atom_site_hse06_10hf_ddec_spin_density
 _atom_site_hse06_10hf_ddec_sum_bond_order
 _atom_site_hse06_10hf_magmom
 _atom_site_hse06_bader_spin_density
 _atom_site_hse06_ddec_charge
 _atom_site_hse06_ddec_spin_density
 _atom_site_hse06_ddec_sum_bond_order
 _atom_site_hse06_magmom
 _atom_site_pbe_bader_spin_density
 _atom_site_pbe_cm5_charge
 _atom_site_pbe_ddec_charge
 _atom_site_pbe_ddec_spin_density
 _atom_site_pbe_ddec_sum_bond_order
 _atom_site_pbe_magmom
Ba  Ba0  1  0.49352551  0.36432946  0.27184435  1  0  1.687336  0  1.13892  0  0  1.541848  0  1.536299  0  0  1.580892  0  1.493816  0  0  1.007247  1.513227  0  1.566347  0
Ba  Ba1  1  0.50647337  0.63567140  0.72815527  1  0  1.687328  0  1.138938  0  0  1.541846  0  1.536329  0  0  1.580892  0  1.493843  0  0  1.007239  1.513225  0  1.566377  0
P  P2  1  0.98422761  0.73071006  0.11663026  1  0  1.462131  0  4.798963  0  0  1.30386  0  5.297565  0  0  1.353858  0  5.258082  0  0  0.357715  1.269066  0  5.324243  0
P  P3  1  0.01576959  0.26928940  0.88336956  1  0  1.462154  0  4.798925  0  0  1.303866  0  5.297534  0  0  1.353853  0  5.258057  0  0  0.357719  1.269072  0  5.324211  0
H  H4  1  0.54768910  0.80467085  0.02339444  1  0  0.44282  0  0.863034  0  0  0.40861  0  0.93247  0  0  0.420669  0  0.915057  0  0  0.321543  0.400147  0  0.944665  0
H  H5  1  0.45230768  0.19533000  0.97660526  1  0  0.442845  0  0.863002  0  0  0.408632  0  0.932441  0  0  0.420686  0  0.915033  0  0  0.321556  0.400169  0  0.944636  0
H  H6  1  0.54163686  0.88506511  0.34158965  1  0  0.381999  0  0.898917  0  0  0.358412  0  0.970167  0  0  0.368495  0  0.958876  0  0  0.313795  0.351263  0  0.978168  0
H  H7  1  0.45836203  0.11493573  0.65841116  1  0  0.381983  0  0.898941  0  0  0.358398  0  0.970185  0  0  0.368481  0  0.958894  0  0  0.313787  0.351249  0  0.978185  0
H  H8  1  0.06627511  0.00093267  0.22422539  1  0  0.128236  0  0.940845  0  0  0.133844  0  1.001254  0  0  0.136931  0  0.999656  0  0  0.140127  0.131636  0  1.002621  0
H  H9  1  0.93372419  0.99906680  0.77577436  1  0  0.128185  0  0.940909  0  0  0.133828  0  1.001259  0  0  0.136916  0  0.999659  0  0  0.140112  0.131618  0  1.002626  0
C  C10  1  0.94357286  0.89374410  0.27069757  1  0  -0.209762  0  3.674013  0  0  -0.211033  0  3.926002  0  0  -0.216514  0  3.929001  0  0  -9e-06  -0.207673  0  3.924411  0
C  C11  1  0.05642602  0.10625675  0.72930206  1  0  -0.209755  0  3.674029  0  0  -0.211024  0  3.926004  0  0  -0.216506  0  3.929004  0  0  2.5e-05  -0.207666  0  3.924415  0
C  C12  1  0.08288875  0.78988976  0.42195754  1  0  0.693875  0  3.881891  0  0  0.639329  0  4.184735  0  0  0.673568  0  4.17518  0  0  0.231599  0.615997  0  4.190587  0
C  C13  1  0.91711432  0.21011113  0.57803956  1  0  0.694031  0  3.881837  0  0  0.639477  0  4.184681  0  0  0.673716  0  4.175124  0  0  0.231651  0.616144  0  4.190536  0
O  O14  1  0.75193967  0.82238111  0.98899000  1  0  -0.751972  0  2.038895  0  0  -0.67567  0  2.273177  0  0  -0.697068  0  2.247258  0  0  -0.367956  -0.660761  0  2.291037  0
O  O15  1  0.24805711  0.17761973  0.01100970  1  0  -0.751987  0  2.038888  0  0  -0.675668  0  2.27317  0  0  -0.697047  0  2.247242  0  0  -0.367951  -0.66076  0  2.291029  0
O  O16  1  0.92862429  0.54712734  0.19914916  1  0  -0.950706  0  1.9801  0  0  -0.86854  0  2.250642  0  0  -0.895563  0  2.232207  0  0  -0.453966  -0.849247  0  2.262798  0
O  O17  1  0.07137460  0.45287351  0.80085164  1  0  -0.950718  0  1.980084  0  0  -0.868551  0  2.250636  0  0  -0.895573  0  2.232206  0  0  -0.45397  -0.849257  0  2.262791  0
O  O18  1  0.27931168  0.71755215  0.03250175  1  0  -0.908503  0  2.003825  0  0  -0.825097  0  2.265909  0  0  -0.852507  0  2.247052  0  0  -0.401704  -0.8056  0  2.2784  0
O  O19  1  0.72068721  0.28244870  0.96749906  1  0  -0.908529  0  2.00381  0  0  -0.825124  0  2.265905  0  0  -0.852535  0  2.247055  0  0  -0.401724  -0.805627  0  2.278395  0
O  O20  1  0.65435993  0.98099186  0.29651874  1  0  -0.548222  0  2.170668  0  0  -0.503682  0  2.40884  0  0  -0.518814  0  2.398896  0  0  -0.423949  -0.492792  0  2.415738  0
O  O21  1  0.34564105  0.01900900  0.70348080  1  0  -0.548203  0  2.170682  0  0  -0.503686  0  2.408875  0  0  -0.518816  0  2.398929  0  0  -0.423948  -0.492796  0  2.415771  0
O  O22  1  0.35104352  0.71558612  0.40598081  1  0  -0.760976  0  2.01665  0  0  -0.694746  0  2.260836  0  0  -0.721261  0  2.249564  0  0  -0.379483  -0.675987  0  2.268046  0
O  O23  1  0.64895578  0.28441336  0.59401894  1  0  -0.761031  0  2.016585  0  0  -0.69481  0  2.26079  0  0  -0.721326  0  2.249516  0  0  -0.379518  -0.676051  0  2.268002  0
O  O24  1  0.93855918  0.77830691  0.55098318  1  0  -0.666232  0  1.967796  0  0  -0.607122  0  2.211885  0  0  -0.632677  0  2.203007  0  0  -0.344953  -0.58926  0  2.21753  0
O  O25  1  0.06143761  0.22169392  0.44901890  1  0  -0.66633  0  1.967925  0  0  -0.607195  0  2.211982  0  0  -0.63275  0  2.203105  0  0  -0.344982  -0.589336  0  2.21763  0
