# generated using pymatgen
data_CuH4C2O3
_symmetry_space_group_name_H-M   'P 1'
_cell_length_a   3.81662264
_cell_length_b   7.75315676
_cell_length_c   12.80683189
_cell_angle_alpha   91.00740270
_cell_angle_beta   83.17055419
_cell_angle_gamma   92.11723090
_symmetry_Int_Tables_number   1
_chemical_formula_structural   CuH4C2O3
_chemical_formula_sum   'Cu4 H16 C8 O12'
_cell_volume   375.98631554
_cell_formula_units_Z   4
loop_
 _symmetry_equiv_pos_site_id
 _symmetry_equiv_pos_as_xyz
  1  'x, y, z'
loop_
 _atom_site_type_symbol
 _atom_site_label
 _atom_site_symmetry_multiplicity
 _atom_site_fract_x
 _atom_site_fract_y
 _atom_site_fract_z
 _atom_site_occupancy
 _atom_site_pbe_bader_charge
 _atom_site_pbe_bader_spin_density
 _atom_site_pbe_cm5_charge
 _atom_site_pbe_ddec_charge
 _atom_site_pbe_ddec_spin_density
 _atom_site_pbe_ddec_sum_bond_order
 _atom_site_pbe_magmom
Cu  Cu0  1  0.28948204  0.43650324  0.60337377  1  1.091004  0.381234  0.684867  0.876131  0.480483  2.172617  0.382
Cu  Cu1  1  0.73094435  0.93594592  0.90545578  1  1.110515  0.576555  0.686889  0.894423  0.730569  2.113177  0.576
Cu  Cu2  1  0.71157725  0.56342897  0.39671773  1  1.089151  -0.34918  0.684268  0.873148  -0.449719  2.180027  -0.35
Cu  Cu3  1  0.26659265  0.06391222  0.09423767  1  1.107784  0.562503  0.685406  0.891225  0.713143  2.116341  0.562
H  H4  1  0.21597198  0.72981687  0.75383683  1  0.153073  0.002268  0.117992  0.035407  0.000952  1.047673  0.002
H  H5  1  0.79994103  0.20928953  0.74504801  1  0.165378  0.002196  0.116254  0.033811  0.000979  1.063895  0.002
H  H6  1  0.78109578  0.27030815  0.24578614  1  0.149734  0.000538  0.117927  0.035239  0.000305  1.048213  0.0
H  H7  1  0.20223197  0.79253063  0.25588184  1  0.161236  0.000424  0.116027  0.033622  9.9e-05  1.065039  0.0
H  H8  1  0.94591506  0.79496159  0.55887924  1  0.05642  -0.002604  0.089671  0.09218  -0.001392  1.033998  -0.001
H  H9  1  0.03729135  0.32695963  0.93327620  1  0.033613  0.010268  0.089314  0.090144  0.00491  1.027569  0.007
H  H10  1  0.05608395  0.20558163  0.44112649  1  0.047657  0.002998  0.089925  0.092311  0.001515  1.034394  0.002
H  H11  1  0.96245856  0.67262107  0.06679412  1  0.032087  0.010722  0.089213  0.090126  0.005143  1.027295  0.007
H  H12  1  0.27468061  0.87785196  0.46047738  1  0.070958  0.003817  0.096441  0.107425  0.002008  1.02196  0.002
H  H13  1  0.70432128  0.39517373  0.03366063  1  0.059454  0.010657  0.094327  0.102249  0.005223  1.028598  0.007
H  H14  1  0.72765718  0.12233983  0.53954536  1  0.103315  -0.002962  0.096106  0.107625  -0.001646  1.021818  -0.001
H  H15  1  0.29588893  0.60446687  0.96651345  1  0.058949  0.010312  0.094173  0.102104  0.005039  1.028984  0.007
H  H16  1  0.36661366  0.87236458  0.59366349  1  0.018764  -0.000312  0.082705  0.085057  -0.000222  1.018837  0.0
H  H17  1  0.59108619  0.33538946  0.90620983  1  0.033694  0.004467  0.087153  0.086854  0.001991  1.023525  0.003
H  H18  1  0.63562397  0.12760595  0.40637502  1  0.02547  0.000472  0.082152  0.084222  0.000291  1.019134  0.0
H  H19  1  0.40868113  0.66493958  0.09394500  1  0.033084  0.004327  0.086879  0.086657  0.001898  1.023367  0.003
C  C20  1  0.95787698  0.66020698  0.76155225  1  1.508254  -0.001865  0.150662  0.490302  0.000361  4.124097  -0.003
C  C21  1  0.06527354  0.15684521  0.74242780  1  1.49227  -0.001197  0.147177  0.476779  0.000757  4.139461  -0.003
C  C22  1  0.03946674  0.33957412  0.23810960  1  1.510231  0.000648  0.150828  0.488915  0.000916  4.125151  0.0
C  C23  1  0.93588359  0.84338381  0.25787175  1  1.489413  -0.000398  0.147801  0.477156  3e-05  4.139713  -0.001
C  C24  1  0.23183951  0.80264597  0.53315427  1  0.395068  0.00021  -0.174519  -0.145324  0.000156  4.012557  0.0
C  C25  1  0.76057677  0.30551145  0.96699228  1  0.407874  0.004893  -0.174141  -0.139554  0.005808  4.007701  0.0
C  C26  1  0.77017574  0.19753390  0.46687082  1  0.36512  0.000453  -0.174084  -0.145168  0.000389  4.012251  0.0
C  C27  1  0.23913065  0.69428672  0.03306746  1  0.409671  0.004986  -0.173376  -0.138252  0.005881  4.006189  0.0
O  O28  1  0.91320389  0.52666031  0.70454065  1  -1.135209  0.052221  -0.322476  -0.524928  0.033451  2.479812  0.048
O  O29  1  0.11700429  0.03441178  0.80317123  1  -1.141415  0.074642  -0.321066  -0.525712  0.047763  2.463469  0.068
O  O30  1  0.08519803  0.47327846  0.29483974  1  -1.131903  -0.036416  -0.321272  -0.520897  -0.023937  2.479075  -0.034
O  O31  1  0.88213414  0.96529947  0.19703065  1  -1.135949  0.064847  -0.31983  -0.523553  0.041539  2.462841  0.06
O  O32  1  0.71208395  0.71439679  0.82836597  1  -1.139921  0.07447  -0.317462  -0.475676  0.04771  2.420488  0.067
O  O33  1  0.31244645  0.21915068  0.67688416  1  -1.138528  0.050951  -0.319628  -0.47964  0.032645  2.455013  0.046
O  O34  1  0.28545879  0.28497239  0.17149571  1  -1.137444  0.066545  -0.316555  -0.473724  0.042639  2.422102  0.06
O  O35  1  0.68841523  0.78008170  0.32293835  1  -1.132532  -0.035383  -0.319153  -0.478226  -0.023231  2.45888  -0.033
O  O36  1  0.36174316  0.63501052  0.51212372  1  -1.019191  0.007383  -0.408686  -0.535052  0.004424  2.62547  0.006
O  O37  1  0.70657424  0.13337761  0.00339851  1  -1.023703  0.221115  -0.406414  -0.546137  0.140068  2.587397  0.201
O  O38  1  0.63952421  0.36501629  0.48786931  1  -1.019261  0.002103  -0.408636  -0.534905  0.00099  2.626237  0.002
O  O39  1  0.29186682  0.86636025  0.99650258  1  -1.024187  0.221093  -0.406859  -0.546366  0.140073  2.587764  0.201
