# generated using pymatgen
data_GdH6(CO2)4
_symmetry_space_group_name_H-M   'P 1'
_cell_length_a   7.38053117
_cell_length_b   7.86649634
_cell_length_c   8.49010751
_cell_angle_alpha   112.07542150
_cell_angle_beta   98.46855592
_cell_angle_gamma   113.92978932
_symmetry_Int_Tables_number   1
_chemical_formula_structural   GdH6(CO2)4
_chemical_formula_sum   'Gd2 H12 C8 O16'
_cell_volume   390.51557403
_cell_formula_units_Z   2
loop_
 _symmetry_equiv_pos_site_id
 _symmetry_equiv_pos_as_xyz
  1  'x, y, z'
loop_
 _atom_site_type_symbol
 _atom_site_label
 _atom_site_symmetry_multiplicity
 _atom_site_fract_x
 _atom_site_fract_y
 _atom_site_fract_z
 _atom_site_occupancy
 _atom_site_hle17_bader_spin_density
 _atom_site_hle17_ddec_charge
 _atom_site_hle17_ddec_spin_density
 _atom_site_hle17_ddec_sum_bond_order
 _atom_site_hle17_magmom
 _atom_site_hse06_10hf_bader_spin_density
 _atom_site_hse06_10hf_ddec_charge
 _atom_site_hse06_10hf_ddec_spin_density
 _atom_site_hse06_10hf_ddec_sum_bond_order
 _atom_site_hse06_10hf_magmom
 _atom_site_hse06_bader_spin_density
 _atom_site_hse06_ddec_charge
 _atom_site_hse06_ddec_spin_density
 _atom_site_hse06_ddec_sum_bond_order
 _atom_site_hse06_magmom
 _atom_site_pbe_bader_spin_density
 _atom_site_pbe_cm5_charge
 _atom_site_pbe_ddec_charge
 _atom_site_pbe_ddec_spin_density
 _atom_site_pbe_ddec_sum_bond_order
 _atom_site_pbe_magmom
Gd  Gd0  1  0.66373437  0.85076701  0.38312352  1  0  2.175899  0  1.710767  0  0  2.081023  0  2.044149  0  0  2.13529  0  1.99487  0  0  1.445685  2.039815  0  2.082666  0
Gd  Gd1  1  0.33626511  0.14923082  0.61687718  1  0  2.175938  0  1.710757  0  0  2.080991  0  2.044269  0  0  2.135265  0  1.994976  0  0  1.445651  2.039794  0  2.08276  0
H  H2  1  0.17127618  0.97188496  0.05767854  1  0  0.178518  0  0.900529  0  0  0.190008  0  0.953761  0  0  0.194535  0  0.951125  0  0  0.129142  0.186802  0  0.955767  0
H  H3  1  0.82872512  0.02811924  0.94232573  1  0  0.17853  0  0.90047  0  0  0.190041  0  0.953684  0  0  0.194568  0  0.95105  0  0  0.129159  0.186835  0  0.955691  0
H  H4  1  0.01566446  0.69249794  0.94025362  1  0  0.162057  0  0.899287  0  0  0.171617  0  0.954733  0  0  0.176114  0  0.951683  0  0  0.119283  0.168454  0  0.957033  0
H  H5  1  0.98433820  0.30750623  0.05974846  1  0  0.162005  0  0.899282  0  0  0.171609  0  0.954685  0  0  0.176107  0  0.951636  0  0  0.119292  0.168448  0  0.956984  0
H  H6  1  0.78807137  0.28997140  0.47154751  1  0  0.43969  0  0.849806  0  0  0.412559  0  0.906292  0  0  0.423163  0  0.890628  0  0  0.308207  0.405017  0  0.91743  0
H  H7  1  0.21192811  0.71002641  0.52845081  1  0  0.439695  0  0.849793  0  0  0.412561  0  0.906284  0  0  0.423164  0  0.890621  0  0  0.30821  0.40502  0  0.91742  0
H  H8  1  0.97335553  0.25482101  0.41179956  1  0  0.438708  0  0.852999  0  0  0.410011  0  0.91211  0  0  0.421355  0  0.895395  0  0  0.30453  0.401905  0  0.924058  0
H  H9  1  0.02664337  0.74517838  0.58819923  1  0  0.438625  0  0.853113  0  0  0.409973  0  0.912133  0  0  0.421311  0  0.89543  0  0  0.304522  0.40187  0  0.924075  0
H  H10  1  0.42346696  0.38474089  0.10290394  1  0  0.441253  0  0.856536  0  0  0.412294  0  0.917458  0  0  0.423023  0  0.901783  0  0  0.304778  0.404698  0  0.928531  0
H  H11  1  0.57653115  0.61525693  0.89709539  1  0  0.441191  0  0.856612  0  0  0.412235  0  0.917532  0  0  0.422964  0  0.901859  0  0  0.30476  0.40464  0  0.928605  0
H  H12  1  0.65038394  0.44456961  0.11077060  1  0  0.445023  0  0.845388  0  0  0.420219  0  0.897685  0  0  0.431044  0  0.881879  0  0  0.306075  0.412526  0  0.908904  0
H  H13  1  0.34961359  0.55542980  0.88922919  1  0  0.445003  0  0.845418  0  0  0.420199  0  0.897713  0  0  0.431024  0  0.881909  0  0  0.306064  0.412505  0  0.908934  0
C  C14  1  0.10449704  0.83036734  0.07672357  1  0  -0.429895  0  3.596567  0  0  -0.461066  0  3.83081  0  0  -0.472075  0  3.829851  0  0  -0.150901  -0.453821  0  3.831731  0
C  C15  1  0.89550620  0.16963526  0.92327924  1  0  -0.429847  0  3.596375  0  0  -0.461056  0  3.830655  0  0  -0.472073  0  3.829696  0  0  -0.150909  -0.453812  0  3.831579  0
C  C16  1  0.61581037  0.52792154  0.54160363  1  0  0.590019  0  3.873923  0  0  0.541905  0  4.17777  0  0  0.572832  0  4.167317  0  0  0.229368  0.52081  0  4.184245  0
C  C17  1  0.38419395  0.47209678  0.45839288  1  0  0.590177  0  3.873492  0  0  0.542007  0  4.177415  0  0  0.572931  0  4.166964  0  0  0.229462  0.520912  0  4.183891  0
C  C18  1  0.28535659  0.82456507  0.17741840  1  0  0.785697  0  3.780408  0  0  0.740028  0  4.075975  0  0  0.775335  0  4.065264  0  0  0.230627  0.716011  0  4.08232  0
C  C19  1  0.71464505  0.17543433  0.82258075  1  0  0.785706  0  3.780371  0  0  0.740028  0  4.075958  0  0  0.775336  0  4.065245  0  0  0.230628  0.716015  0  4.082297  0
C  C20  1  0.95158694  0.84544641  0.17493878  1  0  0.765016  0  3.797865  0  0  0.715185  0  4.104508  0  0  0.74994  0  4.095313  0  0  0.224803  0.691591  0  4.109785  0
C  C21  1  0.04841391  0.15455145  0.82506328  1  0  0.765014  0  3.797829  0  0  0.71514  0  4.104546  0  0  0.749911  0  4.095329  0  0  0.224783  0.691546  0  4.109821  0
O  O22  1  0.64247939  0.40141368  0.58721467  1  0  -0.64774  0  2.084607  0  0  -0.601206  0  2.318027  0  0  -0.625389  0  2.308522  0  0  -0.346472  -0.584199  0  2.324274  0
O  O23  1  0.35751907  0.59857943  0.41278664  1  0  -0.647583  0  2.085044  0  0  -0.601045  0  2.318501  0  0  -0.625219  0  2.308994  0  0  -0.34639  -0.584043  0  2.324751  0
O  O24  1  0.39032210  0.96082094  0.34596333  1  0  -0.784621  0  2.145031  0  0  -0.741301  0  2.401856  0  0  -0.769537  0  2.393777  0  0  -0.42348  -0.721028  0  2.406674  0
O  O25  1  0.60967818  0.03917851  0.65404037  1  0  -0.78458  0  2.145068  0  0  -0.741278  0  2.401939  0  0  -0.76951  0  2.393856  0  0  -0.423457  -0.721007  0  2.406755  0
O  O26  1  0.76228325  0.69737092  0.55910296  1  0  -0.64417  0  2.111981  0  0  -0.59484  0  2.344113  0  0  -0.62075  0  2.336218  0  0  -0.34306  -0.576617  0  2.349193  0
O  O27  1  0.23770381  0.30261582  0.44089351  1  0  -0.644326  0  2.111103  0  0  -0.594965  0  2.343271  0  0  -0.620886  0  2.335374  0  0  -0.343148  -0.576736  0  2.34835  0
O  O28  1  0.77868210  0.82129737  0.09204104  1  0  -0.665923  0  1.993086  0  0  -0.616879  0  2.223062  0  0  -0.642548  0  2.213319  0  0  -0.320757  -0.598852  0  2.229246  0
O  O29  1  0.22132092  0.17870209  0.90796302  1  0  -0.665971  0  1.993007  0  0  -0.6169  0  2.223011  0  0  -0.642574  0  2.213261  0  0  -0.320771  -0.598875  0  2.229193  0
O  O30  1  0.57197620  0.48610257  0.18859398  1  0  -0.913351  0  1.897104  0  0  -0.875925  0  2.078165  0  0  -0.896737  0  2.047778  0  0  -0.64027  -0.860808  0  2.09938  0
O  O31  1  0.42802270  0.51389683  0.81140481  1  0  -0.913276  0  1.89718  0  0  -0.875841  0  2.078222  0  0  -0.896649  0  2.047833  0  0  -0.640235  -0.860724  0  2.099436  0
O  O32  1  0.81822189  0.18867305  0.38521902  1  0  -0.879078  0  1.8508  0  0  -0.841739  0  2.021141  0  0  -0.86029  0  1.989106  0  0  -0.636417  -0.828342  0  2.043709  0
O  O33  1  0.18177918  0.81132795  0.61478178  1  0  -0.878985  0  1.850905  0  0  -0.841654  0  2.021256  0  0  -0.860205  0  1.989223  0  0  -0.636366  -0.828267  0  2.043817  0
O  O34  1  0.99439213  0.87970531  0.33993357  1  0  -0.781007  0  2.116006  0  0  -0.733533  0  2.363559  0  0  -0.761525  0  2.35607  0  0  -0.410164  -0.713435  0  2.367964  0
O  O35  1  0.00561111  0.12029730  0.66007042  1  0  -0.780972  0  2.116072  0  0  -0.733494  0  2.36367  0  0  -0.761502  0  2.356197  0  0  -0.410131  -0.713396  0  2.368072  0
O  O36  1  0.33911189  0.69008422  0.09962016  1  0  -0.676191  0  1.983081  0  0  -0.628436  0  2.210267  0  0  -0.65385  0  2.199811  0  0  -0.331036  -0.610604  0  2.216929  0
O  O37  1  0.66088860  0.30991835  0.90037992  1  0  -0.676247  0  1.982998  0  0  -0.628478  0  2.21019  0  0  -0.653894  0  2.199733  0  0  -0.331064  -0.610648  0  2.216847  0
