# generated using pymatgen
data_Co3H2(C4O5)2
_symmetry_space_group_name_H-M   'P 1'
_cell_length_a   5.42994611
_cell_length_b   7.90802610
_cell_length_c   7.90801365
_cell_angle_alpha   106.14270781
_cell_angle_beta   89.94539485
_cell_angle_gamma   89.94452442
_symmetry_Int_Tables_number   1
_chemical_formula_structural   Co3H2(C4O5)2
_chemical_formula_sum   'Co3 H2 C8 O10'
_cell_volume   326.18236193
_cell_formula_units_Z   1
loop_
 _symmetry_equiv_pos_site_id
 _symmetry_equiv_pos_as_xyz
  1  'x, y, z'
loop_
 _atom_site_type_symbol
 _atom_site_label
 _atom_site_symmetry_multiplicity
 _atom_site_fract_x
 _atom_site_fract_y
 _atom_site_fract_z
 _atom_site_occupancy
 _atom_site_pbe_bader_charge
 _atom_site_pbe_bader_spin_density
 _atom_site_pbe_cm5_charge
 _atom_site_pbe_ddec_charge
 _atom_site_pbe_ddec_spin_density
 _atom_site_pbe_ddec_sum_bond_order
 _atom_site_pbe_magmom
Co  Co0  1  0.50000568  0.99955518  0.00044471  1  1.28678  2.597023  0.623457  0.991176  2.78419  2.46153  2.586
Co  Co1  1  0.99998879  0.88277700  0.11723572  1  1.317265  2.604843  0.639344  1.02071  2.793573  2.440047  2.593
Co  Co2  1  0.00000736  0.11754237  0.88244227  1  1.318678  2.606227  0.640372  1.021548  2.795431  2.447014  2.594
H  H3  1  0.84265595  0.79025274  0.78780910  1  0.596656  0.004398  0.32699  0.428265  0.00247  0.85136  0.003
H  H4  1  0.15734366  0.21219499  0.20973560  1  0.596371  0.0044  0.327012  0.428335  0.00247  0.851265  0.003
C  C5  1  0.66256080  0.56719564  0.05082176  1  0.870435  0.010934  0.110476  0.183966  0.005321  4.118485  0.008
C  C6  1  0.33743817  0.94917777  0.43280934  1  0.870494  0.010931  0.110449  0.183853  0.00532  4.118625  0.008
C  C7  1  0.33712883  0.43265513  0.94990756  1  0.866887  0.01098  0.109791  0.18324  0.005349  4.119765  0.008
C  C8  1  0.66287384  0.05009256  0.56734454  1  0.867181  0.010976  0.109737  0.183154  0.005348  4.119891  0.008
C  C9  1  0.42120176  0.61690882  0.99270204  1  0.744736  0.009767  0.110689  0.189382  0.003931  4.045135  0.006
C  C10  1  0.57879330  0.00730213  0.38310982  1  0.74575  0.009764  0.110873  0.18972  0.003933  4.045293  0.006
C  C11  1  0.57839873  0.38286462  0.00830164  1  0.741639  0.01015  0.110995  0.188885  0.004245  4.045043  0.006
C  C12  1  0.42160634  0.99169259  0.61712069  1  0.741416  0.010145  0.110954  0.188944  0.004243  4.045269  0.006
O  O13  1  0.85679327  0.64457713  0.11432561  1  -1.138907  0.073607  -0.288732  -0.420653  0.037965  2.476578  0.063
O  O14  1  0.14320508  0.88567941  0.35542374  1  -1.138899  0.073608  -0.288692  -0.420607  0.037967  2.476513  0.063
O  O15  1  0.14318460  0.35535925  0.88561910  1  -1.139898  0.074041  -0.288939  -0.420611  0.038177  2.477918  0.063
O  O16  1  0.85681700  0.11437650  0.64463919  1  -1.139816  0.074017  -0.288891  -0.420578  0.038171  2.477969  0.063
O  O17  1  0.82334549  0.89113711  0.89032132  1  -1.180177  0.198373  -0.562748  -0.912748  0.10937  2.369167  0.17
O  O18  1  0.17665675  0.10968594  0.10884697  1  -1.179862  0.198356  -0.562729  -0.912795  0.109364  2.36908  0.17
O  O19  1  0.32397949  0.76011236  0.98230291  1  -1.161357  0.102173  -0.290163  -0.468293  0.053456  2.63533  0.091
O  O20  1  0.67600694  0.01770531  0.23991229  1  -1.162313  0.102172  -0.290371  -0.46858  0.053448  2.635424  0.091
O  O21  1  0.67580086  0.23970115  0.01854093  1  -1.161497  0.101568  -0.289942  -0.468137  0.053134  2.632314  0.09
O  O22  1  0.32421714  0.98145157  0.76027945  1  -1.161564  0.101548  -0.289932  -0.468176  0.053126  2.632251  0.09
