# generated using pymatgen
data_CaH12C10(NO2)4
_symmetry_space_group_name_H-M   'P 1'
_cell_length_a   6.18508114
_cell_length_b   6.18509436
_cell_length_c   10.53162546
_cell_angle_alpha   80.56285653
_cell_angle_beta   80.56286170
_cell_angle_gamma   62.83024641
_symmetry_Int_Tables_number   1
_chemical_formula_structural   CaH12C10(NO2)4
_chemical_formula_sum   'Ca1 H12 C10 N4 O8'
_cell_volume   351.75691159
_cell_formula_units_Z   1
loop_
 _symmetry_equiv_pos_site_id
 _symmetry_equiv_pos_as_xyz
  1  'x, y, z'
loop_
 _atom_site_type_symbol
 _atom_site_label
 _atom_site_symmetry_multiplicity
 _atom_site_fract_x
 _atom_site_fract_y
 _atom_site_fract_z
 _atom_site_occupancy
 _atom_site_hle17_bader_spin_density
 _atom_site_hle17_ddec_charge
 _atom_site_hle17_ddec_spin_density
 _atom_site_hle17_ddec_sum_bond_order
 _atom_site_hle17_magmom
 _atom_site_hse06_10hf_bader_spin_density
 _atom_site_hse06_10hf_ddec_charge
 _atom_site_hse06_10hf_ddec_spin_density
 _atom_site_hse06_10hf_ddec_sum_bond_order
 _atom_site_hse06_10hf_magmom
 _atom_site_hse06_bader_spin_density
 _atom_site_hse06_ddec_charge
 _atom_site_hse06_ddec_spin_density
 _atom_site_hse06_ddec_sum_bond_order
 _atom_site_hse06_magmom
 _atom_site_pbe_bader_spin_density
 _atom_site_pbe_cm5_charge
 _atom_site_pbe_ddec_charge
 _atom_site_pbe_ddec_spin_density
 _atom_site_pbe_ddec_sum_bond_order
 _atom_site_pbe_magmom
Ca  Ca0  1  0.00173982  0.99825554  0.50000081  1  0  1.530242  0  1.066174  0  0  1.396655  0  1.407788  0  0  1.436165  0  1.366345  0  0  0.846764  1.366863  0  1.437264  0
H  H1  1  0.49402804  0.75572119  0.33046988  1  0  0.420597  0  0.865478  0  0  0.386021  0  0.943141  0  0  0.396027  0  0.928578  0  0  0.305372  0.3788  0  0.953672  0
H  H2  1  0.24427717  0.50596587  0.66952597  1  0  0.42065  0  0.865452  0  0  0.386066  0  0.943091  0  0  0.396074  0  0.928523  0  0  0.30539  0.378845  0  0.95362  0
H  H3  1  0.50858196  0.94277084  0.41339925  1  0  0.425191  0  0.873738  0  0  0.395288  0  0.936322  0  0  0.405698  0  0.921255  0  0  0.302803  0.387857  0  0.947052  0
H  H4  1  0.05722855  0.49141604  0.58659415  1  0  0.425234  0  0.873728  0  0  0.395315  0  0.936294  0  0  0.405726  0  0.921226  0  0  0.302795  0.387881  0  0.947027  0
H  H5  1  0.70492553  0.44772030  0.65290630  1  0  0.42447  0  0.861524  0  0  0.3912  0  0.93553  0  0  0.400904  0  0.921467  0  0  0.307559  0.384333  0  0.945475  0
H  H6  1  0.55228172  0.29507043  0.34708998  1  0  0.424392  0  0.861749  0  0  0.391208  0  0.935537  0  0  0.400909  0  0.92148  0  0  0.307604  0.384344  0  0.945481  0
H  H7  1  0.70035101  0.56169136  0.50829876  1  0  0.432232  0  0.858078  0  0  0.401638  0  0.923628  0  0  0.412765  0  0.907407  0  0  0.305148  0.393658  0  0.935253  0
H  H8  1  0.43831343  0.29962940  0.49169598  1  0  0.432293  0  0.857979  0  0  0.401687  0  0.923556  0  0  0.412811  0  0.90734  0  0  0.305182  0.393706  0  0.935183  0
H  H9  1  0.15435835  0.09691665  0.72477442  1  0  0.410491  0  0.903345  0  0  0.378901  0  0.969738  0  0  0.388933  0  0.95523  0  0  0.292573  0.371782  0  0.980038  0
H  H10  1  0.90308778  0.84564556  0.27522360  1  0  0.410469  0  0.903373  0  0  0.378872  0  0.969754  0  0  0.388904  0  0.955246  0  0  0.292576  0.37176  0  0.980043  0
H  H11  1  0.34644736  0.83925903  0.68867470  1  0  0.409869  0  0.898785  0  0  0.381465  0  0.958951  0  0  0.391167  0  0.945008  0  0  0.297958  0.374546  0  0.968958  0
H  H12  1  0.16074965  0.65355244  0.31132608  1  0  0.409833  0  0.898825  0  0  0.381441  0  0.958967  0  0  0.391139  0  0.945029  0  0  0.297978  0.374525  0  0.968969  0
C  C13  1  0.10498831  0.28753023  0.17987403  1  0  0.343816  0  3.766194  0  0  0.318749  0  4.036914  0  0  0.334021  0  4.052614  0  0  0.207161  0.308784  0  4.025397  0
C  C14  1  0.71247016  0.89501196  0.82012951  1  0  0.343865  0  3.766001  0  0  0.318793  0  4.036703  0  0  0.334062  0  4.052405  0  0  0.207177  0.308824  0  4.025179  0
C  C15  1  0.17582430  0.35364064  0.05123359  1  0  -0.133538  0  3.989936  0  0  -0.114266  0  4.230554  0  0  -0.126636  0  4.251594  0  0  -0.027485  -0.105584  0  4.21611  0
C  C16  1  0.64636472  0.82417531  0.94877424  1  0  -0.13357  0  3.98977  0  0  -0.11428  0  4.230345  0  0  -0.126648  0  4.251379  0  0  -0.02761  -0.105597  0  4.215898  0
C  C17  1  0.09607213  0.29214348  0.95084223  1  0  0.299715  0  3.824664  0  0  0.274716  0  4.10384  0  0  0.286899  0  4.125095  0  0  0.190367  0.26626  0  4.08979  0
C  C18  1  0.70785457  0.90392889  0.04916147  1  0  0.299813  0  3.82457  0  0  0.274804  0  4.103731  0  0  0.286986  0  4.124989  0  0  0.190413  0.26635  0  4.089686  0
C  C19  1  0.32323854  0.47551417  0.02259535  1  0  -0.094299  0  3.688059  0  0  -0.099916  0  3.942933  0  0  -0.096604  0  3.95991  0  0  0.001151  -0.102789  0  3.932358  0
C  C20  1  0.52448286  0.67676298  0.97740936  1  0  -0.094336  0  3.688089  0  0  -0.099922  0  3.942889  0  0  -0.096614  0  3.959869  0  0  0.001206  -0.102791  0  3.93231  0
C  C21  1  0.42738437  0.56602394  0.90277194  1  0  0.35548  0  3.839435  0  0  0.325824  0  4.121596  0  0  0.341611  0  4.132406  0  0  0.129573  0.315174  0  4.11455  0
C  C22  1  0.43398792  0.57261093  0.09723567  1  0  0.35531  0  3.839778  0  0  0.325658  0  4.121946  0  0  0.34144  0  4.132755  0  0  0.12954  0.315005  0  4.114908  0
N  N23  1  0.04765739  0.23345445  0.28715239  1  0  -0.488339  0  2.696074  0  0  -0.44847  0  2.950703  0  0  -0.462583  0  2.957951  0  0  -0.352357  -0.438092  0  2.94525  0
N  N24  1  0.76654153  0.95233668  0.71285035  1  0  -0.488371  0  2.696086  0  0  -0.448494  0  2.950691  0  0  -0.462605  0  2.95794  0  0  -0.352324  -0.438116  0  2.945234  0
N  N25  1  0.02858915  0.24605808  0.86582729  1  0  -0.444874  0  2.692878  0  0  -0.411472  0  2.930919  0  0  -0.425554  0  2.943899  0  0  -0.311389  -0.40192  0  2.922661  0
N  N26  1  0.75393771  0.97142761  0.13417786  1  0  -0.445038  0  2.692786  0  0  -0.41162  0  2.930785  0  0  -0.425713  0  2.94378  0  0  -0.311422  -0.402068  0  2.922526  0
O  O27  1  0.46535342  0.80456236  0.41827190  1  0  -0.847989  0  1.882035  0  0  -0.783323  0  2.062215  0  0  -0.804831  0  2.032551  0  0  -0.576913  -0.767613  0  2.083219  0
O  O28  1  0.19543583  0.53464335  0.58172556  1  0  -0.848088  0  1.882014  0  0  -0.783397  0  2.062151  0  0  -0.804908  0  2.032484  0  0  -0.576938  -0.767688  0  2.083159  0
O  O29  1  0.80850067  0.43081006  0.56981768  1  0  -0.854391  0  1.863626  0  0  -0.791572  0  2.047547  0  0  -0.812915  0  2.016587  0  0  -0.575274  -0.776209  0  2.06916  0
O  O30  1  0.56919101  0.19149184  0.43017527  1  0  -0.85437  0  1.863857  0  0  -0.79161  0  2.047592  0  0  -0.812953  0  2.01664  0  0  -0.575345  -0.776245  0  2.069202  0
O  O31  1  0.24444281  0.00450050  0.64922161  1  0  -0.875094  0  1.879101  0  0  -0.820396  0  2.063253  0  0  -0.842375  0  2.035794  0  0  -0.640307  -0.804732  0  2.082552  0
O  O32  1  0.99550903  0.75555069  0.35077699  1  0  -0.875052  0  1.879192  0  0  -0.82033  0  2.063394  0  0  -0.842312  0  2.03594  0  0  -0.640319  -0.804668  0  2.082685  0
O  O33  1  0.43179083  0.55228351  0.78468471  1  0  -0.548413  0  2.096521  0  0  -0.482704  0  2.310971  0  0  -0.504598  0  2.306401  0  0  -0.279346  -0.467677  0  2.314277  0
O  O34  1  0.44772614  0.56820328  0.21531756  1  0  -0.548198  0  2.09697  0  0  -0.482532  0  2.311438  0  0  -0.504393  0  2.306836  0  0  -0.279261  -0.467508  0  2.314748  0
