# generated using pymatgen
data_TlH5C3(NO2)2
_symmetry_space_group_name_H-M   'P 1'
_cell_length_a   4.54665496
_cell_length_b   7.81876792
_cell_length_c   9.27011735
_cell_angle_alpha   89.99961160
_cell_angle_beta   102.88162794
_cell_angle_gamma   90.00007050
_symmetry_Int_Tables_number   1
_chemical_formula_structural   TlH5C3(NO2)2
_chemical_formula_sum   'Tl2 H10 C6 N4 O8'
_cell_volume   321.25186173
_cell_formula_units_Z   2
loop_
 _symmetry_equiv_pos_site_id
 _symmetry_equiv_pos_as_xyz
  1  'x, y, z'
loop_
 _atom_site_type_symbol
 _atom_site_label
 _atom_site_symmetry_multiplicity
 _atom_site_fract_x
 _atom_site_fract_y
 _atom_site_fract_z
 _atom_site_occupancy
 _atom_site_hle17_bader_spin_density
 _atom_site_hle17_ddec_charge
 _atom_site_hle17_ddec_spin_density
 _atom_site_hle17_ddec_sum_bond_order
 _atom_site_hle17_magmom
 _atom_site_hse06_10hf_bader_spin_density
 _atom_site_hse06_10hf_ddec_charge
 _atom_site_hse06_10hf_ddec_spin_density
 _atom_site_hse06_10hf_ddec_sum_bond_order
 _atom_site_hse06_10hf_magmom
 _atom_site_hse06_bader_spin_density
 _atom_site_hse06_ddec_charge
 _atom_site_hse06_ddec_spin_density
 _atom_site_hse06_ddec_sum_bond_order
 _atom_site_hse06_magmom
 _atom_site_pbe_bader_spin_density
 _atom_site_pbe_cm5_charge
 _atom_site_pbe_ddec_charge
 _atom_site_pbe_ddec_spin_density
 _atom_site_pbe_ddec_sum_bond_order
 _atom_site_pbe_magmom
Tl  Tl0  1  0.97897749  0.84131560  0.98628540  1  0  0.811181  0  0.783849  0  0  0.682157  0  1.085237  0  0  0.719425  0  1.05715  0  0  0.383032  0.655229  0  1.103987  0
Tl  Tl1  1  0.47897847  0.15868432  0.48628911  1  0  0.811177  0  0.783834  0  0  0.682158  0  1.085217  0  0  0.719425  0  1.05713  0  0  0.383033  0.65523  0  1.103967  0
H  H2  1  0.13123797  0.12418013  0.78059717  1  0  0.336383  0  0.967417  0  0  0.304673  0  1.053043  0  0  0.316281  0  1.041639  0  0  0.293435  0.296678  0  1.060579  0
H  H3  1  0.63123676  0.87582378  0.28059295  1  0  0.336374  0  0.967417  0  0  0.304636  0  1.053095  0  0  0.316243  0  1.041692  0  0  0.29341  0.29664  0  1.060632  0
H  H4  1  0.67696472  0.54348479  0.33037064  1  0  0.283834  0  0.965401  0  0  0.258635  0  1.043136  0  0  0.26687  0  1.036816  0  0  0.302146  0.25272  0  1.047817  0
H  H5  1  0.17696126  0.45651363  0.83037356  1  0  0.28383  0  0.965346  0  0  0.258682  0  1.04303  0  0  0.266886  0  1.036754  0  0  0.302139  0.252763  0  1.047722  0
H  H6  1  0.67005313  0.22036781  0.85489042  1  0  0.280927  0  0.974734  0  0  0.250705  0  1.056509  0  0  0.260242  0  1.048989  0  0  0.30013  0.244479  0  1.060904  0
H  H7  1  0.17005154  0.77963424  0.35488817  1  0  0.280955  0  0.974706  0  0  0.250725  0  1.05649  0  0  0.260261  0  1.048971  0  0  0.300158  0.244498  0  1.060888  0
H  H8  1  0.81687887  0.31309217  0.23015404  1  0  0.141847  0  0.936289  0  0  0.15307  0  0.998191  0  0  0.156379  0  0.996352  0  0  0.115496  0.150922  0  0.999298  0
H  H9  1  0.31687978  0.68690844  0.73015181  1  0  0.141852  0  0.936317  0  0  0.153105  0  0.998192  0  0  0.156413  0  0.996354  0  0  0.115526  0.150957  0  0.9993  0
H  H10  1  0.88760576  0.36232061  0.05442581  1  0  0.141324  0  0.923924  0  0  0.151752  0  0.984279  0  0  0.155776  0  0.981616  0  0  0.112489  0.148939  0  0.986181  0
H  H11  1  0.38760670  0.63767892  0.55442494  1  0  0.141307  0  0.923934  0  0  0.151738  0  0.984295  0  0  0.155762  0  0.981632  0  0  0.112484  0.148926  0  0.986196  0
C  C12  1  0.52764023  0.50916822  0.10523855  1  0  0.527599  0  3.862222  0  0  0.477616  0  4.164029  0  0  0.505841  0  4.16627  0  0  0.217026  0.458558  0  4.161958  0
C  C13  1  0.02763675  0.49082808  0.60524019  1  0  0.527619  0  3.862112  0  0  0.477591  0  4.164019  0  0  0.505815  0  4.166259  0  0  0.217028  0.458534  0  4.161949  0
C  C14  1  0.70861102  0.34489044  0.11549313  1  0  -0.379606  0  3.663291  0  0  -0.417438  0  3.908008  0  0  -0.425864  0  3.909445  0  0  -0.151282  -0.411481  0  3.906406  0
C  C15  1  0.20860968  0.65510974  0.61548976  1  0  -0.379641  0  3.663408  0  0  -0.417518  0  3.908101  0  0  -0.425939  0  3.90953  0  0  -0.151316  -0.41156  0  3.9065  0
C  C16  1  0.49884979  0.20029880  0.04878215  1  0  0.566641  0  3.84468  0  0  0.518817  0  4.139177  0  0  0.548773  0  4.137942  0  0  0.231826  0.498565  0  4.139407  0
C  C17  1  0.99884657  0.79969958  0.54877844  1  0  0.566499  0  3.84488  0  0  0.518826  0  4.139166  0  0  0.548781  0  4.137929  0  0  0.231788  0.498574  0  4.139397  0
N  N18  1  0.54232679  0.59007432  0.23225599  1  0  -0.216422  0  3.46806  0  0  -0.171432  0  3.728078  0  0  -0.186578  0  3.73933  0  0  -0.320231  -0.161542  0  3.720265  0
N  N19  1  0.04232561  0.40992480  0.73225942  1  0  -0.216339  0  3.467868  0  0  -0.171403  0  3.727888  0  0  -0.186527  0  3.739175  0  0  -0.320209  -0.161512  0  3.720075  0
N  N20  1  0.51853316  0.16235839  0.91022956  1  0  -0.282812  0  3.391288  0  0  -0.228388  0  3.652495  0  0  -0.246602  0  3.66144  0  0  -0.331535  -0.216459  0  3.645342  0
N  N21  1  0.01853154  0.83764310  0.41022699  1  0  -0.282784  0  3.391292  0  0  -0.228385  0  3.652435  0  0  -0.246596  0  3.661376  0  0  -0.331558  -0.216456  0  3.645283  0
O  O22  1  0.39863913  0.74260211  0.23940878  1  0  -0.515513  0  1.973828  0  0  -0.454226  0  2.208495  0  0  -0.4756  0  2.206769  0  0  -0.260053  -0.438463  0  2.207993  0
O  O23  1  0.89864072  0.25739849  0.73941189  1  0  -0.515575  0  1.973852  0  0  -0.45427  0  2.208506  0  0  -0.475646  0  2.206774  0  0  -0.260063  -0.438507  0  2.208001  0
O  O24  1  0.37471874  0.56409142  0.98192523  1  0  -0.653659  0  2.051048  0  0  -0.590824  0  2.293885  0  0  -0.616986  0  2.289631  0  0  -0.317059  -0.57236  0  2.296481  0
O  O25  1  0.87472229  0.43590847  0.48192832  1  0  -0.653653  0  2.05105  0  0  -0.590781  0  2.293909  0  0  -0.616953  0  2.289653  0  0  -0.317069  -0.57232  0  2.296505  0
O  O26  1  0.31952019  0.13202684  0.11623420  1  0  -0.590944  0  1.940427  0  0  -0.532471  0  2.173857  0  0  -0.557733  0  2.168827  0  0  -0.297782  -0.515645  0  2.175979  0
O  O27  1  0.81951920  0.86797086  0.61623142  1  0  -0.590835  0  1.940505  0  0  -0.532447  0  2.173885  0  0  -0.55771  0  2.168857  0  0  -0.297739  -0.515619  0  2.176007  0
O  O28  1  0.32144595  0.04667676  0.82371409  1  0  -0.450792  0  2.085162  0  0  -0.402672  0  2.316457  0  0  -0.420241  0  2.314081  0  0  -0.277638  -0.390166  0  2.317104  0
O  O29  1  0.82144472  0.95332437  0.32371158  1  0  -0.450774  0  2.085182  0  0  -0.402629  0  2.316465  0  0  -0.420199  0  2.314087  0  0  -0.277612  -0.390123  0  2.317113  0
