# generated using pymatgen
data_CdH8C8S2(N2O)2
_symmetry_space_group_name_H-M   'P 1'
_cell_length_a   5.77557266
_cell_length_b   7.15173298
_cell_length_c   7.48353004
_cell_angle_alpha   72.57812532
_cell_angle_beta   86.90717224
_cell_angle_gamma   87.07492914
_symmetry_Int_Tables_number   1
_chemical_formula_structural   CdH8C8S2(N2O)2
_chemical_formula_sum   'Cd1 H8 C8 S2 N4 O2'
_cell_volume   294.30280916
_cell_formula_units_Z   1
loop_
 _symmetry_equiv_pos_site_id
 _symmetry_equiv_pos_as_xyz
  1  'x, y, z'
loop_
 _atom_site_type_symbol
 _atom_site_label
 _atom_site_symmetry_multiplicity
 _atom_site_fract_x
 _atom_site_fract_y
 _atom_site_fract_z
 _atom_site_occupancy
 _atom_site_hle17_bader_spin_density
 _atom_site_hle17_ddec_charge
 _atom_site_hle17_ddec_spin_density
 _atom_site_hle17_ddec_sum_bond_order
 _atom_site_hle17_magmom
 _atom_site_hse06_10hf_bader_spin_density
 _atom_site_hse06_10hf_ddec_charge
 _atom_site_hse06_10hf_ddec_spin_density
 _atom_site_hse06_10hf_ddec_sum_bond_order
 _atom_site_hse06_10hf_magmom
 _atom_site_hse06_bader_spin_density
 _atom_site_hse06_ddec_charge
 _atom_site_hse06_ddec_spin_density
 _atom_site_hse06_ddec_sum_bond_order
 _atom_site_hse06_magmom
 _atom_site_pbe_bader_spin_density
 _atom_site_pbe_cm5_charge
 _atom_site_pbe_ddec_charge
 _atom_site_pbe_ddec_spin_density
 _atom_site_pbe_ddec_sum_bond_order
 _atom_site_pbe_magmom
Cd  Cd0  1  0.49998870  0.50000685  0.99999624  1  0  1.060286  0  1.920042  0  0  0.895846  0  2.396295  0  0  0.942995  0  2.349888  0  0  0.733957  0.862932  0  2.427639  0
H  H1  1  0.11513820  0.80256739  0.26612682  1  0  0.125183  0  0.964059  0  0  0.127872  0  1.036313  0  0  0.13173  0  1.033263  0  0  0.123496  0.125043  0  1.038678  0
H  H2  1  0.88487091  0.19741949  0.73387168  1  0  0.125185  0  0.964041  0  0  0.127848  0  1.036327  0  0  0.131705  0  1.033281  0  0  0.123512  0.125021  0  1.038691  0
H  H3  1  0.33115654  0.12724848  0.41774852  1  0  0.120356  0  0.979475  0  0  0.137514  0  1.046435  0  0  0.138873  0  1.046908  0  0  0.08996  0.136461  0  1.046174  0
H  H4  1  0.66885747  0.87274854  0.58225496  1  0  0.120419  0  0.979429  0  0  0.137558  0  1.046401  0  0  0.138922  0  1.046864  0  0  0.089969  0.136504  0  1.046141  0
H  H5  1  0.25736237  0.04089164  0.66471889  1  0  0.131546  0  0.958506  0  0  0.150178  0  1.018105  0  0  0.151214  0  1.019185  0  0  0.093378  0.149352  0  1.017464  0
H  H6  1  0.74263983  0.95909522  0.33528130  1  0  0.131533  0  0.958526  0  0  0.150156  0  1.018144  0  0  0.151193  0  1.019219  0  0  0.093386  0.14933  0  1.017502  0
H  H7  1  0.48590048  0.20812109  0.57682616  1  0  0.137465  0  0.953115  0  0  0.152069  0  1.021047  0  0  0.154895  0  1.01917  0  0  0.099314  0.150023  0  1.022465  0
H  H8  1  0.51411075  0.79186264  0.42318780  1  0  0.1375  0  0.953068  0  0  0.152118  0  1.021005  0  0  0.154899  0  1.019173  0  0  0.099333  0.150071  0  1.022423  0
C  C9  1  0.99289846  0.74814892  0.91177360  1  0  0.296418  0  4.01426  0  0  0.275718  0  4.317459  0  0  0.296365  0  4.334592  0  0  0.146653  0.261631  0  4.305386  0
C  C10  1  0.00708678  0.25187302  0.08822589  1  0  0.296365  0  4.013998  0  0  0.275665  0  4.317228  0  0  0.296315  0  4.334365  0  0  0.146787  0.261576  0  4.305149  0
C  C11  1  0.05850196  0.66983758  0.37145651  1  0  -0.073291  0  3.571275  0  0  -0.120085  0  3.836372  0  0  -0.116051  0  3.846426  0  0  0.043343  -0.122802  0  3.829859  0
C  C12  1  0.94151233  0.33015356  0.62854991  1  0  -0.07335  0  3.571281  0  0  -0.120078  0  3.836384  0  0  -0.116044  0  3.846439  0  0  0.043301  -0.122798  0  3.82987  0
C  C13  1  0.14905441  0.33602836  0.52725754  1  0  0.202103  0  3.663014  0  0  0.198124  0  3.923524  0  0  0.204092  0  3.939352  0  0  0.123854  0.194001  0  3.912902  0
C  C14  1  0.85095798  0.66396716  0.47274911  1  0  0.202128  0  3.663098  0  0  0.198289  0  3.923449  0  0  0.204259  0  3.939265  0  0  0.123855  0.194159  0  3.912833  0
C  C15  1  0.31421802  0.16655832  0.54932947  1  0  -0.36775  0  3.71885  0  0  -0.445287  0  3.951049  0  0  -0.448377  0  3.957689  0  0  -0.242271  -0.442885  0  3.946588  0
C  C16  1  0.68579099  0.83343430  0.45067547  1  0  -0.367877  0  3.718974  0  0  -0.445454  0  3.951178  0  0  -0.448506  0  3.957844  0  0  -0.24231  -0.443052  0  3.946721  0
S  S17  1  0.73552290  0.84078311  0.94361782  1  0  -0.310581  0  2.153653  0  0  -0.271664  0  2.482379  0  0  -0.29013  0  2.476585  0  0  -0.117929  -0.258552  0  2.486042  0
S  S18  1  0.26444989  0.15924193  0.05637078  1  0  -0.31058  0  2.153843  0  0  -0.271653  0  2.482571  0  0  -0.290118  0  2.476773  0  0  -0.117976  -0.258569  0  2.48628  0
N  N19  1  0.18021201  0.68381628  0.88529051  1  0  -0.542593  0  2.89602  0  0  -0.486846  0  3.174451  0  0  -0.508566  0  3.182041  0  0  -0.397325  -0.471862  0  3.168965  0
N  N20  1  0.81975754  0.31621138  0.11471759  1  0  -0.542548  0  2.895704  0  0  -0.486791  0  3.174121  0  0  -0.508515  0  3.181719  0  0  -0.397411  -0.471802  0  3.168627  0
N  N21  1  0.20618647  0.51033786  0.39693650  1  0  0.256498  0  3.684944  0  0  0.298686  0  3.950898  0  0  0.301772  0  3.971037  0  0  -0.102235  0.296291  0  3.937436  0
N  N22  1  0.79382614  0.48965181  0.60307040  1  0  0.256561  0  3.684853  0  0  0.298727  0  3.950766  0  0  0.301812  0  3.970908  0  0  -0.102185  0.296334  0  3.937304  0
O  O23  1  0.40553541  0.52401832  0.30386719  1  0  -0.505514  0  1.849788  0  0  -0.464268  0  2.108603  0  0  -0.487382  0  2.108086  0  0  -0.227239  -0.448218  0  2.108725  0
O  O24  1  0.59447401  0.47596264  0.69613692  1  0  -0.505461  0  1.84962  0  0  -0.464241  0  2.108518  0  0  -0.487352  0  2.108001  0  0  -0.227218  -0.44819  0  2.108642  0
