# generated using pymatgen
data_ZnHC8NO5
_symmetry_space_group_name_H-M   'P 1'
_cell_length_a   10.62767783
_cell_length_b   11.89245804
_cell_length_c   14.04988480
_cell_angle_alpha   90.00614329
_cell_angle_beta   101.44338834
_cell_angle_gamma   90.00152136
_symmetry_Int_Tables_number   1
_chemical_formula_structural   ZnHC8NO5
_chemical_formula_sum   'Zn2 H2 C16 N2 O10'
_cell_volume   1740.45403512
_cell_formula_units_Z   2
loop_
 _symmetry_equiv_pos_site_id
 _symmetry_equiv_pos_as_xyz
  1  'x, y, z'
loop_
 _atom_site_type_symbol
 _atom_site_label
 _atom_site_symmetry_multiplicity
 _atom_site_fract_x
 _atom_site_fract_y
 _atom_site_fract_z
 _atom_site_occupancy
 _atom_site_pbe_bader_charge
 _atom_site_pbe_bader_spin_density
 _atom_site_pbe_cm5_charge
 _atom_site_pbe_ddec_charge
 _atom_site_pbe_ddec_spin_density
 _atom_site_pbe_ddec_sum_bond_order
 _atom_site_pbe_magmom
Zn  Zn0  1  0.63132037  0.49999775  0.51019448  1  1.316068  0  0.685769  0.873546  0  2.42557  0
Zn  Zn1  1  0.36867904  0.49999500  0.48979291  1  1.313242  0  0.685742  0.873721  0  2.425585  0
H  H2  1  0.73744382  0.50006870  0.00164190  1  0.596475  0  0.343787  0.373841  0  0.865045  0
H  H3  1  0.26255470  0.49994255  0.99836675  1  0.596379  0  0.343711  0.37383  0  0.864785  0
C  C4  1  0.50000905  0.28099035  0.49998648  1  1.714481  0  0.223403  0.662298  0  4.236403  0
C  C5  1  0.45210590  0.50001308  0.12050144  1  -0.144383  0  -0.039008  -0.102089  0  4.14137  0
C  C6  1  0.50000302  0.15961847  0.50000433  1  0.099818  0  -0.011731  -0.136835  0  3.852803  0
C  C7  1  0.50003242  0.84038354  0.50001813  1  0.099615  0  -0.011618  -0.136704  0  3.853193  0
C  C8  1  0.49999759  0.05673477  0.50000530  1  -0.338093  0  -0.012227  0.023204  0  4.242893  0
C  C9  1  0.50000615  0.94324537  0.50001253  1  -0.161621  0  -0.012277  0.023455  0  4.24354  0
C  C10  1  0.06326994  0.49999682  0.49648399  1  0.988193  0  0.303641  0.295586  0  3.907008  0
C  C11  1  0.93673174  0.49999677  0.50353075  1  1.08327  0  0.303488  0.295318  0  3.907102  0
C  C12  1  0.50004176  0.71900493  0.50001864  1  1.714778  0  0.223444  0.662213  0  4.237024  0
C  C13  1  0.53496885  0.49999942  0.68845065  1  1.644428  0  0.218659  0.658346  0  4.243871  0
C  C14  1  0.46498509  0.50001267  0.31154324  1  1.645134  0  0.218708  0.658142  0  4.244302  0
C  C15  1  0.45481445  0.50002787  0.20790209  1  -0.096916  0  -0.027213  -0.126414  0  3.922795  0
C  C16  1  0.54515749  0.49999347  0.79208903  1  -0.096819  0  -0.027479  -0.126926  0  3.923643  0
C  C17  1  0.44583854  0.49999323  0.02015124  1  0.610007  0  0.080914  0.206078  0  4.136883  0
C  C18  1  0.55420784  0.50000709  0.97984123  1  0.703563  0  0.080797  0.205693  0  4.138414  0
C  C19  1  0.54788803  0.49999397  0.87949097  1  -0.143801  0  -0.038794  -0.10164  0  4.14214  0
N  N20  1  0.17069296  0.49999772  0.49030910  1  -0.98372  0  -0.169239  -0.136093  0  2.942029  0
N  N21  1  0.82930422  0.49999251  0.50969155  1  -0.982452  0  -0.16922  -0.135983  0  2.942148  0
O  O22  1  0.60915992  0.32865772  0.50896624  1  -1.127745  0  -0.310838  -0.538052  0  2.249731  0
O  O23  1  0.32769153  0.49996772  0.95836915  1  -1.06945  0  -0.343271  -0.427607  0  2.22756  0
O  O24  1  0.39088947  0.67132494  0.49106862  1  -1.127331  0  -0.310921  -0.538226  0  2.250031  0
O  O25  1  0.39085337  0.32866071  0.49101482  1  -1.127434  0  -0.3108  -0.538048  0  2.249414  0
O  O26  1  0.60918053  0.67133625  0.50895616  1  -1.128075  0  -0.310792  -0.537962  0  2.250045  0
O  O27  1  0.63938636  0.50002136  0.65649199  1  -1.12249  0  -0.316829  -0.541377  0  2.244375  0
O  O28  1  0.36055655  0.50001764  0.34349057  1  -1.122637  0  -0.316875  -0.541432  0  2.244222  0
O  O29  1  0.42085366  0.49998228  0.63812382  1  -1.141101  0  -0.314779  -0.546263  0  2.263761  0
O  O30  1  0.57908010  0.49999029  0.36186687  1  -1.141455  0  -0.31499  -0.546278  0  2.26446  0
O  O31  1  0.67230506  0.50003008  0.04161932  1  -1.069925  0  -0.343159  -0.427342  0  2.228954  0
