# generated using pymatgen
data_CdH10(C8N5)2
_symmetry_space_group_name_H-M   'P 1'
_cell_length_a   6.89269941
_cell_length_b   8.56981964
_cell_length_c   8.84877753
_cell_angle_alpha   65.88192580
_cell_angle_beta   67.11561222
_cell_angle_gamma   66.23351174
_symmetry_Int_Tables_number   1
_chemical_formula_structural   CdH10(C8N5)2
_chemical_formula_sum   'Cd1 H10 C16 N10'
_cell_volume   420.58495652
_cell_formula_units_Z   1
loop_
 _symmetry_equiv_pos_site_id
 _symmetry_equiv_pos_as_xyz
  1  'x, y, z'
loop_
 _atom_site_type_symbol
 _atom_site_label
 _atom_site_symmetry_multiplicity
 _atom_site_fract_x
 _atom_site_fract_y
 _atom_site_fract_z
 _atom_site_occupancy
 _atom_site_pbe_bader_spin_density
 _atom_site_pbe_cm5_charge
 _atom_site_pbe_ddec_charge
 _atom_site_pbe_ddec_spin_density
 _atom_site_pbe_ddec_sum_bond_order
 _atom_site_pbe_magmom
Cd  Cd0  1  0.88073118  0.99980777  0.00003053  1  0  0.83328  0.900163  0  2.399596  0
H  H1  1  0.89402659  0.30026407  0.63922850  1  0  0.116121  0.090377  0  0.987974  0
H  H2  1  0.83392388  0.69968305  0.36096748  1  0  0.116619  0.091359  0  0.988596  0
H  H3  1  0.01926587  0.34075862  0.32107199  1  0  0.106923  0.114827  0  1.019499  0
H  H4  1  0.68086241  0.65942297  0.67907517  1  0  0.107713  0.115328  0  1.020674  0
H  H5  1  0.20216201  0.06922458  0.21986230  1  0  0.114548  0.127278  0  0.986551  0
H  H6  1  0.49131709  0.93114646  0.78003081  1  0  0.114738  0.127191  0  0.986229  0
H  H7  1  0.12568619  0.74900719  0.75132187  1  0  0.114307  0.07936  0  1.04251  0
H  H8  1  0.62768361  0.25091286  0.24857204  1  0  0.1145  0.079677  0  1.042071  0
H  H9  1  0.34144397  0.74050564  0.28661486  1  0  0.114364  0.093579  0  1.024765  0
H  H10  1  0.36918092  0.25972313  0.71315952  1  0  0.114533  0.093405  0  1.024798  0
C  C11  1  0.97652436  0.18646318  0.58843165  1  0  0.048586  0.095007  0  3.938006  0
C  C12  1  0.75201908  0.81352579  0.41169627  1  0  0.048803  0.093976  0  3.941624  0
C  C13  1  0.04502518  0.20776788  0.41308288  1  0  -0.083904  -0.123944  0  3.975675  0
C  C14  1  0.66603254  0.79236044  0.58701483  1  0  -0.085246  -0.125547  0  3.979322  0
C  C15  1  0.14812989  0.05635934  0.35680104  1  0  -0.054786  -0.054867  0  3.865555  0
C  C16  1  0.56168245  0.94385686  0.64314719  1  0  -0.054898  -0.053909  0  3.864404  0
C  C17  1  0.17922689  0.88654285  0.47868813  1  0  -0.004216  0.023443  0  3.999541  0
C  C18  1  0.54547405  0.11358631  0.52118456  1  0  -0.004919  0.024426  0  3.998023  0
C  C19  1  0.10431057  0.87840939  0.65308523  1  0  0.058928  0.065193  0  3.910077  0
C  C20  1  0.63721602  0.12157388  0.34684923  1  0  0.058689  0.064519  0  3.9081  0
C  C21  1  0.28646239  0.72513882  0.42486019  1  0  0.073566  0.05602  0  3.916308  0
C  C22  1  0.43744423  0.27502228  0.57494684  1  0  0.074424  0.055075  0  3.915493  0
C  C23  1  0.24541541  0.62373592  0.03981612  1  0  0.305182  0.443738  0  4.282545  0
C  C24  1  0.90865982  0.37609149  0.96016248  1  0  0.303919  0.442693  0  4.285009  0
C  C25  1  0.42752791  0.34975944  0.98358834  1  0  0.30834  0.454472  0  4.272632  0
C  C26  1  0.76078422  0.64995499  0.01665011  1  0  0.308219  0.453818  0  4.276704  0
N  N27  1  0.00654224  0.02389119  0.70610903  1  0  -0.32869  -0.244144  0  3.540837  0
N  N28  1  0.73763448  0.97600668  0.29393038  1  0  -0.32849  -0.244215  0  3.54277  0
N  N29  1  0.31548907  0.56859205  0.53777923  1  0  -0.217894  -0.177863  0  3.304572  0
N  N30  1  0.42230191  0.43157076  0.46202157  1  0  -0.218499  -0.176638  0  3.303906  0
N  N31  1  0.20581297  0.76890251  0.04697293  1  0  -0.395365  -0.555763  0  3.026506  0
N  N32  1  0.02153329  0.23099134  0.95268612  1  0  -0.394099  -0.554845  0  3.026245  0
N  N33  1  0.25956375  0.46839196  0.04222267  1  0  -0.302873  -0.385822  0  3.611654  0
N  N34  1  0.76957924  0.53138086  0.95824531  1  0  -0.302978  -0.385099  0  3.614168  0
N  N35  1  0.56569737  0.22955255  0.93621234  1  0  -0.38971  -0.550788  0  3.054724  0
N  N36  1  0.73174817  0.77010867  0.06388709  1  0  -0.389734  -0.55148  0  3.055744  0
