# generated using pymatgen
data_FeH8PdC14(N3F)2
_symmetry_space_group_name_H-M   'P 1'
_cell_length_a   7.04904731
_cell_length_b   7.16074530
_cell_length_c   8.58051810
_cell_angle_alpha   114.52555123
_cell_angle_beta   98.21267086
_cell_angle_gamma   90.00019311
_symmetry_Int_Tables_number   1
_chemical_formula_structural   FeH8PdC14(N3F)2
_chemical_formula_sum   'Fe1 H8 Pd1 C14 N6 F2'
_cell_volume   389.14918138
_cell_formula_units_Z   1
loop_
 _symmetry_equiv_pos_site_id
 _symmetry_equiv_pos_as_xyz
  1  'x, y, z'
loop_
 _atom_site_type_symbol
 _atom_site_label
 _atom_site_symmetry_multiplicity
 _atom_site_fract_x
 _atom_site_fract_y
 _atom_site_fract_z
 _atom_site_occupancy
 _atom_site_hle17_bader_spin_density
 _atom_site_hle17_ddec_charge
 _atom_site_hle17_ddec_spin_density
 _atom_site_hle17_ddec_sum_bond_order
 _atom_site_hle17_magmom
 _atom_site_hse06_10hf_bader_spin_density
 _atom_site_hse06_10hf_ddec_charge
 _atom_site_hse06_10hf_ddec_spin_density
 _atom_site_hse06_10hf_ddec_sum_bond_order
 _atom_site_hse06_10hf_magmom
 _atom_site_hse06_bader_spin_density
 _atom_site_hse06_ddec_charge
 _atom_site_hse06_ddec_spin_density
 _atom_site_hse06_ddec_sum_bond_order
 _atom_site_hse06_magmom
 _atom_site_pbe_bader_spin_density
 _atom_site_pbe_cm5_charge
 _atom_site_pbe_ddec_charge
 _atom_site_pbe_ddec_spin_density
 _atom_site_pbe_ddec_sum_bond_order
 _atom_site_pbe_magmom
Fe  Fe0  1  0.99963364  0.01064490  0.02121213  1  0  0.61841  0  3.213449  0  0  0.585555  0  3.708281  0  0  0.633669  0  3.644948  0  0  0.801838  0.560098  0  3.744213  0
H  H1  1  0.31171267  0.87806234  0.75465849  1  0  0.116664  0  0.920918  0  0  0.124026  0  0.981174  0  0  0.12458  0  0.981771  0  0  0.126814  0.123903  0  0.980656  0
H  H2  1  0.68823477  0.11876472  0.23958242  1  0  0.124198  0  0.922531  0  0  0.131705  0  0.981096  0  0  0.132279  0  0.980978  0  0  0.131743  0.131177  0  0.981652  0
H  H3  1  0.04153289  0.60868846  0.21777436  1  0  0.140357  0  0.924942  0  0  0.150904  0  0.981181  0  0  0.151513  0  0.983117  0  0  0.119152  0.150543  0  0.979749  0
H  H4  1  0.95976860  0.38792772  0.77531547  1  0  0.142272  0  0.918086  0  0  0.151444  0  0.976096  0  0  0.152551  0  0.976635  0  0  0.11991  0.150477  0  0.976115  0
H  H5  1  0.72097965  0.66103813  0.32362905  1  0  0.09587  0  0.977678  0  0  0.094991  0  1.058157  0  0  0.098281  0  1.054559  0  0  0.089878  0.092525  0  1.061055  0
H  H6  1  0.27999423  0.33450657  0.66744804  1  0  0.098876  0  0.971731  0  0  0.096101  0  1.054689  0  0  0.099538  0  1.050819  0  0  0.091269  0.093439  0  1.057969  0
H  H7  1  0.71557741  0.82189211  0.64487584  1  0  0.091852  0  0.929796  0  0  0.095735  0  0.997279  0  0  0.097365  0  0.995639  0  0  0.118126  0.094796  0  0.99832  0
H  H8  1  0.28585493  0.17468644  0.34821102  1  0  0.099415  0  0.930315  0  0  0.1029  0  0.997917  0  0  0.104727  0  0.995266  0  0  0.12231  0.101612  0  1.000019  0
Pd  Pd9  1  0.49695459  0.49957773  0.99891342  1  0  0.170508  0  3.589267  0  0  0.153255  0  4.163768  0  0  0.1587  0  4.109876  0  0  0.642287  0.15115  0  4.202482  0
C  C10  1  0.18361064  0.82841022  0.65615560  1  0  -0.00745  0  3.714036  0  0  -0.045645  0  3.974775  0  0  -0.042554  0  3.99583  0  0  0.041667  -0.047922  0  3.960032  0
C  C11  1  0.81697555  0.16774699  0.33663588  1  0  -0.002232  0  3.656812  0  0  -0.045548  0  3.917434  0  0  -0.038076  0  3.934307  0  0  0.039235  -0.051708  0  3.907616  0
C  C12  1  0.19493652  0.74021922  0.48009408  1  0  0.255754  0  3.797703  0  0  0.249051  0  4.075529  0  0  0.254473  0  4.088479  0  0  0.102305  0.245223  0  4.066523  0
C  C13  1  0.80663418  0.25582706  0.51253732  1  0  0.259849  0  3.798087  0  0  0.25158  0  4.080518  0  0  0.25648  0  4.091138  0  0  0.103867  0.247671  0  4.074559  0
C  C14  1  0.03114993  0.67745202  0.35538562  1  0  -0.111267  0  3.675728  0  0  -0.141513  0  3.924463  0  0  -0.142735  0  3.947754  0  0  -0.072035  -0.140216  0  3.907921  0
C  C15  1  0.96987875  0.31888632  0.63761295  1  0  -0.104411  0  3.668756  0  0  -0.137956  0  3.922674  0  0  -0.135032  0  3.941226  0  0  -0.071274  -0.14091  0  3.91152  0
C  C16  1  0.85479435  0.70708444  0.41517835  1  0  -0.088912  0  3.738827  0  0  -0.096725  0  3.993037  0  0  -0.104289  0  4.019131  0  0  -0.08087  -0.091184  0  3.974707  0
C  C17  1  0.14555606  0.28865786  0.57650722  1  0  -0.085619  0  3.73494  0  0  -0.095185  0  3.996245  0  0  -0.102795  0  4.019217  0  0  -0.079228  -0.090272  0  3.98177  0
C  C18  1  0.85034174  0.79624317  0.59300731  1  0  0.094819  0  3.709035  0  0  0.058875  0  3.97559  0  0  0.064938  0  3.996458  0  0  0.042876  0.054717  0  3.960641  0
C  C19  1  0.15089753  0.19976780  0.39916760  1  0  0.101157  0  3.651308  0  0  0.060104  0  3.918634  0  0  0.069931  0  3.935662  0  0  0.043003  0.052175  0  3.90914  0
C  C20  1  0.68996690  0.68635602  0.98144362  1  0  0.040344  0  3.462182  0  0  0.017685  0  3.814659  0  0  0.032628  0  3.812998  0  0  -0.026846  0.007086  0  3.816599  0
C  C21  1  0.30705699  0.70884719  0.02590041  1  0  0.042071  0  3.46204  0  0  0.019837  0  3.81479  0  0  0.034358  0  3.813705  0  0  -0.025961  0.00929  0  3.816668  0
C  C22  1  0.30653489  0.31763495  0.02572793  1  0  0.041603  0  3.463281  0  0  0.019391  0  3.816095  0  0  0.033997  0  3.814895  0  0  -0.026565  0.008851  0  3.817965  0
C  C23  1  0.68958438  0.29485615  0.98120595  1  0  0.040353  0  3.463507  0  0  0.01783  0  3.815876  0  0  0.032711  0  3.814326  0  0  -0.027049  0.007235  0  3.817787  0
N  N24  1  0.01202264  0.85465811  0.70901040  1  0  -0.217063  0  3.215785  0  0  -0.167533  0  3.485255  0  0  -0.191938  0  3.510091  0  0  -0.27602  -0.149061  0  3.466597  0
N  N25  1  0.98885634  0.14012715  0.28069224  1  0  -0.183278  0  3.331551  0  0  -0.130725  0  3.607219  0  0  -0.1595  0  3.631571  0  0  -0.30298  -0.111499  0  3.590105  0
N  N26  1  0.80775683  0.80603693  0.98814805  1  0  -0.337929  0  3.32022  0  0  -0.302952  0  3.636059  0  0  -0.321583  0  3.644837  0  0  -0.390924  -0.291768  0  3.629297  0
N  N27  1  0.19264006  0.83064951  0.03736962  1  0  -0.339219  0  3.311655  0  0  -0.304911  0  3.628324  0  0  -0.323369  0  3.636863  0  0  -0.389429  -0.293674  0  3.621574  0
N  N28  1  0.19208655  0.20713310  0.03702363  1  0  -0.339029  0  3.311457  0  0  -0.30472  0  3.628037  0  0  -0.323207  0  3.636603  0  0  -0.388997  -0.293472  0  3.621249  0
N  N29  1  0.80731287  0.18176648  0.98782141  1  0  -0.338143  0  3.322244  0  0  -0.303263  0  3.638206  0  0  -0.321903  0  3.647051  0  0  -0.390806  -0.292063  0  3.631414  0
F  F30  1  0.37232326  0.71638548  0.43177602  1  0  -0.211541  0  1.210721  0  0  -0.153344  0  1.36556  0  0  -0.16408  0  1.356644  0  0  -0.094554  -0.145175  0  1.371465  0
F  F31  1  0.62884098  0.27944853  0.55998297  1  0  -0.20828  0  1.206311  0  0  -0.150948  0  1.360496  0  0  -0.161659  0  1.351449  0  0  -0.092742  -0.143044  0  1.366897  0
