# generated using pymatgen
data_MnCuH6C14(NO4)2
_symmetry_space_group_name_H-M   'P 1'
_cell_length_a   5.04295750
_cell_length_b   7.40140120
_cell_length_c   9.26227332
_cell_angle_alpha   99.87011636
_cell_angle_beta   96.92400523
_cell_angle_gamma   99.21372030
_symmetry_Int_Tables_number   1
_chemical_formula_structural   MnCuH6C14(NO4)2
_chemical_formula_sum   'Mn1 Cu1 H6 C14 N2 O8'
_cell_volume   332.28639947
_cell_formula_units_Z   1
loop_
 _symmetry_equiv_pos_site_id
 _symmetry_equiv_pos_as_xyz
  1  'x, y, z'
loop_
 _atom_site_type_symbol
 _atom_site_label
 _atom_site_symmetry_multiplicity
 _atom_site_fract_x
 _atom_site_fract_y
 _atom_site_fract_z
 _atom_site_occupancy
 _atom_site_hle17_ddec_charge
 _atom_site_hle17_ddec_spin_density
 _atom_site_hle17_ddec_sum_bond_order
 _atom_site_hle17_magmom
 _atom_site_hse06_10hf_ddec_charge
 _atom_site_hse06_10hf_ddec_spin_density
 _atom_site_hse06_10hf_ddec_sum_bond_order
 _atom_site_hse06_10hf_magmom
 _atom_site_hse06_ddec_charge
 _atom_site_hse06_ddec_spin_density
 _atom_site_hse06_ddec_sum_bond_order
 _atom_site_hse06_magmom
 _atom_site_pbe_cm5_charge
 _atom_site_pbe_ddec_charge
 _atom_site_pbe_ddec_spin_density
 _atom_site_pbe_ddec_sum_bond_order
 _atom_site_pbe_magmom
Mn  Mn0  1  0.00000168  0.50000136  0.50000095  1  1.299499  4.760577  1.838509  4.651  1.17266  4.64895  2.34737  4.491  1.214518  4.729598  2.271081  4.584  0.655883  1.159603  4.510154  2.40009  4.344
Cu  Cu1  1  0.50000159  0.50000090  0.99999909  1  0.8145  -0.666145  1.794207  -0.489  0.781544  -0.745426  2.185595  -0.595  0.875506  -0.828031  2.118704  -0.688  0.737401  0.711025  -0.649688  2.241434  -0.513
H  H2  1  0.91871273  0.12099475  0.63425104  1  0.138376  -0.001221  0.934876  -0.001  0.142709  -0.000952  1.001361  -0.001  0.147492  -0.000826  0.998555  -0.001  0.120734  0.137997  -0.000943  1.004598  -0.001
H  H3  1  0.08129210  0.87900811  0.36575108  1  0.138367  -0.001224  0.93489  -0.001  0.142698  -0.000951  1.001386  -0.001  0.147482  -0.000826  0.998579  -0.001  0.120727  0.137987  -0.000943  1.004624  -0.001
H  H4  1  0.23304613  0.80393870  0.77548022  1  0.12998  -0.000866  0.966074  -0.001  0.132309  -0.000691  1.036983  0.0  0.137762  -0.000651  1.0325  0.0  0.115321  0.127872  -0.000671  1.040649  -0.001
H  H5  1  0.76694977  0.19605992  0.22451738  1  0.130043  -0.000881  0.96602  -0.001  0.132327  -0.000691  1.036977  0.0  0.137805  -0.000651  1.032468  0.0  0.115337  0.127888  -0.000671  1.040646  -0.001
H  H6  1  0.19923584  0.09834075  0.95043599  1  0.089828  -0.000797  0.934109  -0.002  0.099021  -0.000743  0.994786  -0.001  0.101117  -0.000573  0.993688  -0.001  0.120479  0.097448  -0.000752  0.995454  -0.001
H  H7  1  0.80075641  0.90165923  0.04956151  1  0.089798  -0.000797  0.934134  -0.002  0.09899  -0.000743  0.994815  -0.001  0.101085  -0.000573  0.993719  -0.001  0.120477  0.097417  -0.000752  0.995482  -0.001
C  C8  1  0.71511733  0.26706940  0.79621225  1  0.094561  0.000947  3.730053  0.001  0.099187  -0.000119  3.974451  -0.001  0.101976  -6e-06  3.992671  0.0  0.110699  0.09678  0.000475  3.963978  -0.001
C  C9  1  0.28488453  0.73292927  0.20378691  1  0.094505  0.000933  3.730059  0.001  0.099164  -0.000118  3.974462  -0.001  0.101952  -6e-06  3.992681  0.0  0.110667  0.096757  0.000475  3.963989  -0.001
C  C10  1  0.75744536  0.10963024  0.70243408  1  -0.096023  -0.001562  3.646113  -0.001  -0.127818  0.000916  3.892403  0.001  -0.129496  1e-06  3.907545  0.0  -0.059859  -0.128256  0.002934  3.886041  0.002
C  C11  1  0.24255641  0.89036842  0.29756723  1  -0.095998  -0.001564  3.646062  -0.001  -0.127801  0.000914  3.89236  0.001  -0.129481  0.0  3.907502  0.0  -0.059873  -0.128241  0.002934  3.885999  0.002
C  C12  1  0.58098713  0.94008308  0.69281342  1  0.007842  0.005531  3.662494  0.005  0.025454  0.004004  3.898555  0.003  0.02658  0.003414  3.912941  0.003  0.013741  0.021635  0.004399  3.890793  0.003
C  C13  1  0.41901473  0.05991558  0.30718573  1  0.007771  0.005545  3.662553  0.005  0.025393  0.004006  3.898622  0.003  0.026519  0.003414  3.913013  0.003  0.013744  0.021575  0.004399  3.890859  0.003
C  C14  1  0.37465114  0.93341175  0.78130523  1  -0.092029  -0.004419  3.646581  -0.005  -0.118975  0.000104  3.899907  -0.001  -0.121949  -0.001016  3.914278  -0.002  -0.063305  -0.117178  0.002968  3.891353  0.001
C  C15  1  0.62534737  0.06658967  0.21869512  1  -0.092066  -0.004377  3.646618  -0.005  -0.118975  0.000102  3.899952  -0.001  -0.121969  -0.001017  3.914306  -0.002  -0.063319  -0.117176  0.002967  3.891402  0.001
C  C16  1  0.35234250  0.09520819  0.87694765  1  0.129136  0.003727  3.688927  0.004  0.101362  0.001025  3.949196  0.001  0.109013  0.001853  3.967903  0.002  0.051252  0.096979  0.000724  3.936189  0.0
C  C17  1  0.64765375  0.90479182  0.12305017  1  0.129231  0.003717  3.688848  0.004  0.101466  0.001026  3.949125  0.001  0.109118  0.001853  3.967836  0.002  0.051289  0.097083  0.000724  3.936117  0.0
C  C18  1  0.87423546  0.45947886  0.80797570  1  0.628592  0.017973  3.874034  0.019  0.574394  0.021027  4.185125  0.02  0.612829  0.016474  4.176495  0.016  0.218232  0.547987  0.026014  4.192829  0.024
C  C19  1  0.12576426  0.54051978  0.19202653  1  0.628638  0.017975  3.874122  0.019  0.574381  0.021023  4.185286  0.02  0.612816  0.016473  4.176655  0.016  0.218214  0.547974  0.026012  4.192991  0.024
C  C20  1  0.60426399  0.76916891  0.58365275  1  0.680661  0.011341  3.867347  0.012  0.629525  0.01799  4.158643  0.018  0.662547  0.014168  4.153683  0.015  0.234829  0.610838  0.019854  4.153482  0.019
C  C21  1  0.39574044  0.23083255  0.41635022  1  0.680675  0.011301  3.867395  0.012  0.629516  0.017988  4.158731  0.018  0.662535  0.014167  4.153775  0.015  0.2348  0.610828  0.019852  4.153569  0.019
N  N22  1  0.51723954  0.25830058  0.88240263  1  -0.304926  -0.065657  3.367186  -0.084  -0.261232  -0.045189  3.661885  -0.061  -0.289141  -0.039743  3.681979  -0.056  -0.35734  -0.245329  -0.040569  3.651305  -0.053
N  N23  1  0.48276076  0.74169947  0.11759443  1  -0.304918  -0.065664  3.367136  -0.084  -0.261255  -0.045189  3.661865  -0.061  -0.289164  -0.039742  3.681952  -0.056  -0.357304  -0.245352  -0.040568  3.651285  -0.053
O  O24  1  0.80820915  0.59109505  0.89840201  1  -0.566542  -0.082132  2.015212  -0.113  -0.539941  -0.051981  2.298312  -0.079  -0.581157  -0.042252  2.2891  -0.068  -0.316556  -0.515272  -0.050978  2.309075  -0.076
O  O25  1  0.19178861  0.40890357  0.10159898  1  -0.566628  -0.082118  2.015225  -0.113  -0.540008  -0.051979  2.298349  -0.079  -0.581225  -0.042249  2.289138  -0.068  -0.316578  -0.515342  -0.050977  2.309117  -0.076
O  O26  1  0.06287176  0.48592519  0.73124964  1  -0.611034  0.004141  2.049896  -0.017  -0.568508  0.018238  2.333771  -0.006  -0.597085  0.021673  2.31687  -0.001  -0.292651  -0.552661  0.017638  2.348544  -0.006
O  O27  1  0.93712671  0.51407623  0.26875179  1  -0.611021  0.004145  2.049921  -0.017  -0.568445  0.018241  2.333786  -0.006  -0.597022  0.021673  2.316889  -0.001  -0.292629  -0.552596  0.01764  2.348559  -0.006
O  O28  1  0.84256572  0.74970529  0.56057688  1  -0.639866  0.030747  2.036865  0.018  -0.582283  0.040933  2.30232  0.025  -0.612657  0.037379  2.29045  0.022  -0.295624  -0.555268  0.040257  2.304246  0.025
O  O29  1  0.15744150  0.25029898  0.43942453  1  -0.639865  0.030758  2.036827  0.018  -0.582286  0.040931  2.302306  0.025  -0.612661  0.037378  2.290444  0.022  -0.295594  -0.555268  0.040254  2.304226  0.025
O  O30  1  0.38572610  0.66238670  0.51969191  1  -0.645557  0.035026  2.127623  0.02  -0.582308  0.043677  2.398378  0.025  -0.612844  0.039321  2.386469  0.02  -0.296597  -0.558888  0.048418  2.403174  0.031
O  O31  1  0.61427636  0.33761475  0.48030983  1  -0.645532  0.035039  2.127649  0.02  -0.582264  0.043675  2.398404  0.025  -0.612801  0.039321  2.386496  0.02  -0.296596  -0.558846  0.048417  2.403204  0.031
