# generated using pymatgen
data_CdH18C10S2(N2O)2
_symmetry_space_group_name_H-M   'P 1'
_cell_length_a   5.90713787
_cell_length_b   6.60142270
_cell_length_c   9.99576345
_cell_angle_alpha   84.76316311
_cell_angle_beta   82.49484192
_cell_angle_gamma   70.59202269
_symmetry_Int_Tables_number   1
_chemical_formula_structural   CdH18C10S2(N2O)2
_chemical_formula_sum   'Cd1 H18 C10 S2 N4 O2'
_cell_volume   364.01320193
_cell_formula_units_Z   1
loop_
 _symmetry_equiv_pos_site_id
 _symmetry_equiv_pos_as_xyz
  1  'x, y, z'
loop_
 _atom_site_type_symbol
 _atom_site_label
 _atom_site_symmetry_multiplicity
 _atom_site_fract_x
 _atom_site_fract_y
 _atom_site_fract_z
 _atom_site_occupancy
 _atom_site_hle17_bader_spin_density
 _atom_site_hle17_ddec_charge
 _atom_site_hle17_ddec_spin_density
 _atom_site_hle17_ddec_sum_bond_order
 _atom_site_hle17_magmom
 _atom_site_hse06_10hf_bader_spin_density
 _atom_site_hse06_10hf_ddec_charge
 _atom_site_hse06_10hf_ddec_spin_density
 _atom_site_hse06_10hf_ddec_sum_bond_order
 _atom_site_hse06_10hf_magmom
 _atom_site_hse06_bader_spin_density
 _atom_site_hse06_ddec_charge
 _atom_site_hse06_ddec_spin_density
 _atom_site_hse06_ddec_sum_bond_order
 _atom_site_hse06_magmom
 _atom_site_pbe_bader_spin_density
 _atom_site_pbe_cm5_charge
 _atom_site_pbe_ddec_charge
 _atom_site_pbe_ddec_spin_density
 _atom_site_pbe_ddec_sum_bond_order
 _atom_site_pbe_magmom
Cd  Cd0  1  0.49999500  0.00000920  0.49999257  1  0  0.951666  0  1.915699  0  0  0.775638  0  2.361606  0  0  0.818991  0  2.327417  0  0  0.720964  0.74454  0  2.386619  0
H  H1  1  0.16947159  0.30097315  0.67334583  1  0  0.232933  0  0.934186  0  0  0.226576  0  0.992126  0  0  0.23065  0  0.991373  0  0  0.278582  0.223427  0  0.99315  0
H  H2  1  0.83051740  0.69902192  0.32666217  1  0  0.232946  0  0.934138  0  0  0.22659  0  0.992106  0  0  0.230658  0  0.991353  0  0  0.27857  0.223447  0  0.993135  0
H  H3  1  0.44810086  0.93278029  0.83950625  1  0  0.074236  0  0.960026  0  0  0.084829  0  1.034557  0  0  0.085861  0  1.034232  0  0  0.098792  0.084115  0  1.034895  0
H  H4  1  0.55192087  0.06722802  0.16049169  1  0  0.074273  0  0.959991  0  0  0.084864  0  1.034524  0  0  0.085895  0  1.034199  0  0  0.098785  0.084148  0  1.034858  0
H  H5  1  0.14968829  0.98396548  0.79813484  1  0  0.068363  0  0.941149  0  0  0.086939  0  1.003045  0  0  0.08673  0  1.003964  0  0  0.101939  0.08697  0  1.002639  0
H  H6  1  0.85032487  0.01603316  0.20187529  1  0  0.068392  0  0.941106  0  0  0.086976  0  1.00298  0  0  0.086769  0  1.003898  0  0  0.101961  0.087007  0  1.002572  0
H  H7  1  0.00048309  0.31110436  0.93202821  1  0  0.049118  0  0.932109  0  0  0.061604  0  0.99993  0  0  0.062738  0  0.998597  0  0  0.094179  0.060899  0  1.000777  0
H  H8  1  0.99953029  0.68888460  0.06798350  1  0  0.049248  0  0.931996  0  0  0.061725  0  0.999833  0  0  0.062861  0  0.9985  0  0  0.094216  0.061017  0  1.000681  0
H  H9  1  0.16773233  0.08816913  0.03522104  1  0  0.061871  0  0.925872  0  0  0.077523  0  0.989507  0  0  0.077567  0  0.989438  0  0  0.102361  0.076815  0  0.991037  0
H  H10  1  0.83229360  0.91182314  0.96478360  1  0  0.061892  0  0.925822  0  0  0.077519  0  0.989503  0  0  0.077563  0  0.989433  0  0  0.102356  0.076812  0  0.991027  0
H  H11  1  0.49721369  0.52452674  0.88282206  1  0  0.074779  0  0.94925  0  0  0.087355  0  1.014428  0  0  0.088185  0  1.01372  0  0  0.103627  0.086767  0  1.01482  0
H  H12  1  0.50278688  0.47546998  0.11717504  1  0  0.074755  0  0.949233  0  0  0.087358  0  1.014413  0  0  0.088189  0  1.013703  0  0  0.103649  0.08677  0  1.014808  0
H  H13  1  0.20105239  0.56551853  0.83768253  1  0  0.042775  0  0.955661  0  0  0.053493  0  1.031219  0  0  0.053478  0  1.031578  0  0  0.088731  0.053108  0  1.031739  0
H  H14  1  0.79893937  0.43447821  0.16232618  1  0  0.042759  0  0.955566  0  0  0.053476  0  1.031172  0  0  0.053458  0  1.031535  0  0  0.088751  0.053115  0  1.031671  0
H  H15  1  0.50608710  0.42187791  0.64363318  1  0  0.080592  0  0.952694  0  0  0.09568  0  1.017602  0  0  0.095532  0  1.018877  0  0  0.10007  0.095604  0  1.017  0
H  H16  1  0.49388772  0.57813300  0.35636082  1  0  0.080559  0  0.952767  0  0  0.095649  0  1.017656  0  0  0.095494  0  1.018929  0  0  0.100065  0.095574  0  1.017049  0
H  H17  1  0.66243300  0.19939295  0.74667853  1  0  0.065532  0  0.920963  0  0  0.082493  0  0.984976  0  0  0.082815  0  0.98501  0  0  0.098904  0.082288  0  0.984973  0
H  H18  1  0.33756430  0.80061328  0.25330521  1  0  0.065472  0  0.920971  0  0  0.082537  0  0.984856  0  0  0.082858  0  0.984886  0  0  0.098945  0.082329  0  0.98486  0
C  C19  1  0.06213316  0.75754086  0.59348875  1  0  0.289572  0  4.021248  0  0  0.267299  0  4.329346  0  0  0.28888  0  4.342407  0  0  0.146228  0.25253  0  4.320207  0
C  C20  1  0.93784652  0.24242155  0.40649889  1  0  0.289722  0  4.021729  0  0  0.267441  0  4.329811  0  0  0.289016  0  4.342866  0  0  0.14634  0.252676  0  4.320681  0
C  C21  1  0.27872918  0.06046219  0.82047476  1  0  -0.023074  0  3.65952  0  0  -0.083832  0  3.921569  0  0  -0.080429  0  3.933612  0  0  -0.086144  -0.085995  0  3.912761  0
C  C22  1  0.72128013  0.93954275  0.17952524  1  0  -0.023197  0  3.659367  0  0  -0.083927  0  3.921454  0  0  -0.080528  0  3.933501  0  0  -0.086171  -0.086081  0  3.912633  0
C  C23  1  0.18122666  0.19337723  0.94484943  1  0  0.060305  0  3.644431  0  0  0.005662  0  3.915059  0  0  0.012252  0  3.920434  0  0  -0.076046  0.000992  0  3.912282  0
C  C24  1  0.81878397  0.80661486  0.05515628  1  0  0.060198  0  3.644391  0  0  0.005508  0  3.915112  0  0  0.012103  0  3.920474  0  0  -0.076091  0.000845  0  3.912324  0
C  C25  1  0.37608792  0.44296945  0.85614007  1  0  0.044947  0  3.642665  0  0  -0.007693  0  3.906449  0  0  -0.001656  0  3.91271  0  0  -0.081822  -0.011723  0  3.901898  0
C  C26  1  0.62390946  0.55704016  0.14385746  1  0  0.045077  0  3.642639  0  0  -0.007691  0  3.906554  0  0  -0.001658  0  3.912815  0  0  -0.081911  -0.011739  0  3.901993  0
C  C27  1  0.48334524  0.31526199  0.73119311  1  0  -0.019299  0  3.673166  0  0  -0.078855  0  3.934749  0  0  -0.07532  0  3.94703  0  0  -0.088648  -0.08125  0  3.926128  0
C  C28  1  0.51664653  0.68474434  0.26880601  1  0  -0.01931  0  3.67325  0  0  -0.078858  0  3.934786  0  0  -0.075305  0  3.947043  0  0  -0.088644  -0.081248  0  3.92616  0
S  S29  1  0.82533239  0.68739054  0.64916477  1  0  -0.331979  0  2.157585  0  0  -0.302713  0  2.497849  0  0  -0.317372  0  2.488984  0  0  -0.129627  -0.292097  0  2.505345  0
S  S30  1  0.17466029  0.31260447  0.35083298  1  0  -0.332109  0  2.156914  0  0  -0.302858  0  2.497199  0  0  -0.317519  0  2.488326  0  0  -0.129676  -0.292242  0  2.504703  0
N  N31  1  0.76177717  0.19716651  0.44434495  1  0  -0.526193  0  2.890867  0  0  -0.467419  0  3.165673  0  0  -0.487787  0  3.173631  0  0  -0.387875  -0.453443  0  3.160097  0
N  N32  1  0.23822043  0.80285604  0.55565277  1  0  -0.526191  0  2.889614  0  0  -0.467419  0  3.16444  0  0  -0.487797  0  3.172407  0  0  -0.387828  -0.453437  0  3.158856  0
N  N33  1  0.32976360  0.19222100  0.69955898  1  0  -0.403703  0  3.214693  0  0  -0.325138  0  3.455727  0  0  -0.34505  0  3.470284  0  0  -0.483732  -0.310194  0  3.445309  0
N  N34  1  0.67023512  0.80777575  0.30044325  1  0  -0.403634  0  3.214463  0  0  -0.32513  0  3.455546  0  0  -0.345039  0  3.470096  0  0  -0.483747  -0.310207  0  3.445145  0
O  O35  1  0.34029317  0.30504207  0.97099786  1  0  -0.316639  0  2.216498  0  0  -0.251647  0  2.470456  0  0  -0.266589  0  2.470835  0  0  -0.240057  -0.241115  0  2.47039  0
O  O36  1  0.65972627  0.69495822  0.02900873  1  0  -0.316655  0  2.216673  0  0  -0.251555  0  2.470618  0  0  -0.266495  0  2.470999  0  0  -0.239995  -0.241025  0  2.470553  0
