# generated using pymatgen
data_AgH3(CN2)2
_symmetry_space_group_name_H-M   'P 1'
_cell_length_a   7.43682228
_cell_length_b   7.60029695
_cell_length_c   7.60032842
_cell_angle_alpha   97.21382787
_cell_angle_beta   96.59327796
_cell_angle_gamma   96.59354190
_symmetry_Int_Tables_number   1
_chemical_formula_structural   AgH3(CN2)2
_chemical_formula_sum   'Ag4 H12 C8 N16'
_cell_volume   419.71071743
_cell_formula_units_Z   4
loop_
 _symmetry_equiv_pos_site_id
 _symmetry_equiv_pos_as_xyz
  1  'x, y, z'
loop_
 _atom_site_type_symbol
 _atom_site_label
 _atom_site_symmetry_multiplicity
 _atom_site_fract_x
 _atom_site_fract_y
 _atom_site_fract_z
 _atom_site_occupancy
 _atom_site_pbe_bader_spin_density
 _atom_site_pbe_cm5_charge
 _atom_site_pbe_ddec_charge
 _atom_site_pbe_ddec_spin_density
 _atom_site_pbe_ddec_sum_bond_order
 _atom_site_pbe_magmom
Ag  Ag0  1  0.36885205  0.49779618  0.26135179  1  0  0.47499  0.278764  0  2.033128  0
Ag  Ag1  1  0.13114454  0.73864993  0.50220177  1  0  0.474994  0.278741  0  2.033235  0
Ag  Ag2  1  0.63114245  0.50220470  0.73864827  1  0  0.475002  0.278819  0  2.03319  0
Ag  Ag3  1  0.86885638  0.26134827  0.49779475  1  0  0.474986  0.278783  0  2.033172  0
H  H4  1  0.55068499  0.84210404  0.07831858  1  0  0.099062  0.148019  0  1.022198  0
H  H5  1  0.94931507  0.92167544  0.15789243  1  0  0.09908  0.148048  0  1.022215  0
H  H6  1  0.44932636  0.15789145  0.92168275  1  0  0.099109  0.148101  0  1.022185  0
H  H7  1  0.05067967  0.07831742  0.84211060  1  0  0.099103  0.148094  0  1.022118  0
H  H8  1  0.62005111  0.07103397  0.17510564  1  0  0.095463  0.137613  0  1.048299  0
H  H9  1  0.87994554  0.82489023  0.92896217  1  0  0.09551  0.137666  0  1.04835  0
H  H10  1  0.37996056  0.92897357  0.82489067  1  0  0.095541  0.13776  0  1.048241  0
H  H11  1  0.12004895  0.17511066  0.07103921  1  0  0.095508  0.137657  0  1.048272  0
H  H12  1  0.40049573  0.96151414  0.19517699  1  0  0.100329  0.149096  0  1.017471  0
H  H13  1  0.09949899  0.80482139  0.03848140  1  0  0.100327  0.149118  0  1.017516  0
H  H14  1  0.59950222  0.03849209  0.80482020  1  0  0.100335  0.149173  0  1.017422  0
H  H15  1  0.90049780  0.19518618  0.96151451  1  0  0.10032  0.149127  0  1.017459  0
C  C16  1  0.61987648  0.88408825  0.36072809  1  0  0.215422  0.355786  0  3.999289  0
C  C17  1  0.88012469  0.63926908  0.11591302  1  0  0.215513  0.355989  0  3.99921  0
C  C18  1  0.38013656  0.11590052  0.63930154  1  0  0.21555  0.35612  0  3.999  0
C  C19  1  0.11986900  0.36070637  0.88409559  1  0  0.215519  0.355921  0  3.999196  0
C  C20  1  0.54455165  0.94339347  0.19294779  1  0  -0.241324  -0.465078  0  3.91536  0
C  C21  1  0.95544412  0.80704843  0.05660007  1  0  -0.241426  -0.465275  0  3.91554  0
C  C22  1  0.45544999  0.05661946  0.80703357  1  0  -0.241502  -0.465513  0  3.916344  0
C  C23  1  0.04455347  0.19295513  0.94339542  1  0  -0.241423  -0.465246  0  3.915841  0
N  N24  1  0.56694927  0.72617611  0.41310177  1  0  -0.257133  -0.247749  0  3.481584  0
N  N25  1  0.93304948  0.58689825  0.27382272  1  0  -0.257151  -0.247764  0  3.481547  0
N  N26  1  0.43305212  0.27383547  0.58689517  1  0  -0.257235  -0.248026  0  3.481603  0
N  N27  1  0.06695046  0.41310263  0.72617139  1  0  -0.257218  -0.247962  0  3.4816  0
N  N28  1  0.67114262  0.72442125  0.57049518  1  0  -0.129562  -0.033306  0  3.558481  0
N  N29  1  0.82885010  0.42950359  0.27557712  1  0  -0.129611  -0.033428  0  3.558501  0
N  N30  1  0.32885521  0.27557427  0.42950459  1  0  -0.129574  -0.033249  0  3.558606  0
N  N31  1  0.17114728  0.57049862  0.72442607  1  0  -0.129571  -0.033262  0  3.558645  0
N  N32  1  0.78348088  0.87436077  0.61328251  1  0  -0.102002  -0.086446  0  3.287898  0
N  N33  1  0.71651367  0.38671617  0.12563890  1  0  -0.101967  -0.086358  0  3.287772  0
N  N34  1  0.21651984  0.12563608  0.38671908  1  0  -0.10199  -0.086421  0  3.287923  0
N  N35  1  0.28348101  0.61328605  0.87436136  1  0  -0.101967  -0.086372  0  3.287991  0
N  N36  1  0.75291314  0.97774481  0.48341790  1  0  -0.255252  -0.236681  0  3.503053  0
N  N37  1  0.74708906  0.51658113  0.02225523  1  0  -0.255289  -0.236817  0  3.503052  0
N  N38  1  0.24707875  0.02224672  0.51657542  1  0  -0.255206  -0.236701  0  3.502599  0
N  N39  1  0.25291681  0.48342375  0.97774666  1  0  -0.25526  -0.236745  0  3.502859  0
