# generated using pymatgen
data_RbNiH3(CO2)3
_symmetry_space_group_name_H-M   'P 1'
_cell_length_a   7.25308846
_cell_length_b   7.25308952
_cell_length_c   8.23942365
_cell_angle_alpha   89.99995832
_cell_angle_beta   90.00002095
_cell_angle_gamma   119.99992736
_symmetry_Int_Tables_number   1
_chemical_formula_structural   RbNiH3(CO2)3
_chemical_formula_sum   'Rb2 Ni2 H6 C6 O12'
_cell_volume   375.38230355
_cell_formula_units_Z   2
loop_
 _symmetry_equiv_pos_site_id
 _symmetry_equiv_pos_as_xyz
  1  'x, y, z'
loop_
 _atom_site_type_symbol
 _atom_site_label
 _atom_site_symmetry_multiplicity
 _atom_site_fract_x
 _atom_site_fract_y
 _atom_site_fract_z
 _atom_site_occupancy
 _atom_site_pbe_cm5_charge
 _atom_site_pbe_ddec_charge
 _atom_site_pbe_ddec_spin_density
 _atom_site_pbe_ddec_sum_bond_order
 _atom_site_pbe_magmom
Rb  Rb0  1  0.00000884  0.99999961  0.25000017  1  0.74875  0.866539  0.001286  0.677119  0.001
Rb  Rb1  1  0.99999336  0.99999614  0.75000011  1  0.748762  0.866597  0.001283  0.676975  0.001
Ni  Ni2  1  0.66667104  0.33333209  0.25000050  1  0.621192  0.923708  1.787806  2.33472  1.593
Ni  Ni3  1  0.33333001  0.66667005  0.75000011  1  0.621245  0.92377  1.787771  2.333693  1.593
H  H4  1  0.59972968  0.59972444  0.99999582  1  0.119022  0.024352  0.000173  1.032771  0.001
H  H5  1  0.99999827  0.59971824  0.49999975  1  0.119021  0.024335  0.000173  1.032779  0.001
H  H6  1  0.40027686  0.00000187  0.00000613  1  0.119009  0.024318  0.000173  1.032766  0.001
H  H7  1  0.40027302  0.40026481  0.49999122  1  0.119028  0.024376  0.000173  1.032717  0.001
H  H8  1  0.99999309  0.40027230  0.00000125  1  0.119016  0.024321  0.000173  1.032754  0.001
H  H9  1  0.59972782  0.00000208  0.50000473  1  0.119014  0.024313  0.000173  1.03278  0.001
C  C10  1  0.44761927  0.44761722  0.99999099  1  0.149088  0.497395  -0.004618  4.174494  -0.004
C  C11  1  0.99999992  0.44760998  0.50000934  1  0.149053  0.497385  -0.004618  4.174477  -0.004
C  C12  1  0.55238367  0.99999825  0.99999204  1  0.149077  0.497449  -0.004619  4.174429  -0.004
C  C13  1  0.55238083  0.55237739  0.50000697  1  0.149101  0.497428  -0.004618  4.174422  -0.004
C  C14  1  0.00000180  0.55238519  0.99999088  1  0.149126  0.49757  -0.004619  4.174301  -0.004
C  C15  1  0.44761577  0.99999454  0.50001045  1  0.149062  0.497513  -0.00462  4.17434  -0.004
O  O16  1  0.41861701  0.30991590  0.10757545  1  -0.362454  -0.559324  0.037383  2.431163  0.062
O  O17  1  0.10867460  0.41859780  0.60756058  1  -0.362342  -0.559187  0.037371  2.431684  0.062
O  O18  1  0.69009388  0.10869873  0.10757071  1  -0.362408  -0.559334  0.037383  2.431109  0.062
O  O19  1  0.58139010  0.69006376  0.60755814  1  -0.362332  -0.559208  0.037369  2.431744  0.062
O  O20  1  0.89130571  0.58139486  0.10757423  1  -0.362454  -0.559418  0.037384  2.431056  0.062
O  O21  1  0.30992117  0.89131434  0.60755682  1  -0.362312  -0.559257  0.037374  2.431624  0.062
O  O22  1  0.10867646  0.69007431  0.89244086  1  -0.362358  -0.559274  0.037371  2.431711  0.062
O  O23  1  0.58139306  0.89132088  0.89243966  1  -0.362341  -0.559206  0.037372  2.43171  0.062
O  O24  1  0.30992514  0.41860189  0.89244462  1  -0.362295  -0.559142  0.037369  2.431647  0.062
O  O25  1  0.69009162  0.58138718  0.39242786  1  -0.36244  -0.559335  0.037385  2.431114  0.062
O  O26  1  0.89130391  0.30990703  0.39242555  1  -0.362412  -0.559321  0.037382  2.431098  0.062
O  O27  1  0.41860793  0.10869223  0.39242675  1  -0.362418  -0.559364  0.037384  2.431138  0.062
