# generated using pymatgen
data_AlH5C8O5
_symmetry_space_group_name_H-M   'P 1'
_cell_length_a   6.69514623
_cell_length_b   11.14015153
_cell_length_c   11.13652107
_cell_angle_alpha   73.91867289
_cell_angle_beta   72.51613718
_cell_angle_gamma   72.51262422
_symmetry_Int_Tables_number   1
_chemical_formula_structural   AlH5C8O5
_chemical_formula_sum   'Al2 H10 C16 O10'
_cell_volume   739.54075081
_cell_formula_units_Z   2
loop_
 _symmetry_equiv_pos_site_id
 _symmetry_equiv_pos_as_xyz
  1  'x, y, z'
loop_
 _atom_site_type_symbol
 _atom_site_label
 _atom_site_symmetry_multiplicity
 _atom_site_fract_x
 _atom_site_fract_y
 _atom_site_fract_z
 _atom_site_occupancy
 _atom_site_pbe_bader_charge
 _atom_site_pbe_bader_spin_density
 _atom_site_pbe_cm5_charge
 _atom_site_pbe_ddec_charge
 _atom_site_pbe_ddec_spin_density
 _atom_site_pbe_ddec_sum_bond_order
 _atom_site_pbe_magmom
Al  Al0  1  0.99668405  0.00048811  0.99862498  1  2.502018  0  0.401379  1.652278  0  2.575785  0
Al  Al1  1  0.49662056  0.00063256  0.99855184  1  2.502832  0  0.401555  1.654678  0  2.57339  0
H  H2  1  0.73738610  0.99650498  0.38061701  1  0.095252  0  0.107549  0.109808  0  1.01167  0
H  H3  1  0.61605623  0.00304237  0.61667537  1  0.089374  0  0.108243  0.110931  0  1.01019  0
H  H4  1  0.75635592  0.61831455  0.00262146  1  0.085365  0  0.108051  0.110824  0  1.012008  0
H  H5  1  0.87668379  0.38182584  0.99842176  1  0.08725  0  0.107541  0.110595  0  1.010875  0
H  H6  1  0.25665805  0.00305827  0.61671799  1  0.091892  0  0.10728  0.109286  0  1.012161  0
H  H7  1  0.37800745  0.99659277  0.38066566  1  0.117941  0  0.107315  0.110032  0  1.010903  0
H  H8  1  0.23602560  0.38188840  0.99834366  1  0.093306  0  0.107165  0.109482  0  1.009563  0
H  H9  1  0.11574598  0.61838546  0.00256835  1  0.089749  0  0.107962  0.110748  0  1.009129  0
H  H10  1  0.24625734  0.13321679  0.86618729  1  0.596525  0  0.358777  0.436067  0  0.84174  0
H  H11  1  0.74797975  0.86657660  0.12948092  1  0.622529  0  0.357705  0.435816  0  0.841377  0
C  C12  1  0.84916640  0.99781863  0.43367952  1  -0.065631  0  -0.07967  -0.090331  0  3.972954  0
C  C13  1  0.78216899  0.00178570  0.56365074  1  0.035422  0  -0.079253  -0.091558  0  3.969984  0
C  C14  1  0.64429287  0.56521971  0.00183858  1  -0.003343  0  -0.079846  -0.090884  0  3.973622  0
C  C15  1  0.71072008  0.43495834  0.99919612  1  -0.054611  0  -0.078328  -0.091302  0  3.972753  0
C  C16  1  0.14478789  0.00183140  0.56370149  1  -0.006788  0  -0.079052  -0.090904  0  3.971769  0
C  C17  1  0.21186800  0.99783802  0.43368198  1  -0.089995  0  -0.076833  -0.088114  0  3.967747  0
C  C18  1  0.34802073  0.43501185  0.99914101  1  -0.064289  0  -0.079606  -0.091341  0  3.969415  0
C  C19  1  0.28163336  0.56525985  0.00177807  1  0.003758  0  -0.079496  -0.090846  0  3.967412  0
C  C20  1  0.06429228  0.99595915  0.36799726  1  -0.05288  0  -0.010265  -0.036853  0  3.96404  0
C  C21  1  0.92954707  0.00398004  0.62935243  1  -0.029303  0  -0.011292  -0.037353  0  3.961905  0
C  C22  1  0.13604689  0.99227859  0.22818616  1  1.571038  0  0.270814  0.64311  0  4.092187  0
C  C23  1  0.85754914  0.00844724  0.76900279  1  1.588047  0  0.271103  0.643704  0  4.090911  0
C  C24  1  0.42943572  0.63111744  0.00298540  1  -0.026089  0  -0.009545  -0.037612  0  3.959319  0
C  C25  1  0.56304797  0.36925319  0.99749450  1  -0.028348  0  -0.010514  -0.036298  0  3.963064  0
C  C26  1  0.35808110  0.77117721  0.00545568  1  1.579435  0  0.268518  0.642614  0  4.092597  0
C  C27  1  0.63490906  0.22960943  0.99321180  1  1.584402  0  0.269385  0.642059  0  4.093226  0
O  O28  1  0.99477212  0.99028246  0.17397617  1  -1.263657  0  -0.237688  -0.59692  0  2.347382  0
O  O29  1  0.65995738  0.01066690  0.82317215  1  -1.261463  0  -0.236195  -0.596032  0  2.348015  0
O  O30  1  0.49947676  0.82554330  0.00696396  1  -1.256451  0  -0.23636  -0.596494  0  2.348444  0
O  O31  1  0.83244618  0.17540163  0.99087914  1  -1.264599  0  -0.236226  -0.594923  0  2.350435  0
O  O32  1  0.99875903  0.01054147  0.82324633  1  -1.258865  0  -0.23748  -0.59635  0  2.346563  0
O  O33  1  0.33343637  0.99046395  0.17392089  1  -1.261136  0  -0.235947  -0.595044  0  2.349407  0
O  O34  1  0.49367231  0.17557450  0.99085104  1  -1.253484  0  -0.234978  -0.594695  0  2.346904  0
O  O35  1  0.16078000  0.82540458  0.00691624  1  -1.264403  0  -0.235576  -0.595246  0  2.349335  0
O  O36  1  0.24631536  0.06114884  0.93857991  1  -1.402334  0  -0.447677  -0.995986  0  2.205975  0
O  O37  1  0.74695399  0.93996463  0.05843870  1  -1.428466  0  -0.448516  -0.996948  0  2.206407  0
