# generated using pymatgen
data_AgH4C6N5
_symmetry_space_group_name_H-M   'P 1'
_cell_length_a   4.77912650
_cell_length_b   8.89780945
_cell_length_c   9.33466622
_cell_angle_alpha   64.54237568
_cell_angle_beta   87.45112589
_cell_angle_gamma   79.83751117
_symmetry_Int_Tables_number   1
_chemical_formula_structural   AgH4C6N5
_chemical_formula_sum   'Ag2 H8 C12 N10'
_cell_volume   352.56037627
_cell_formula_units_Z   2
loop_
 _symmetry_equiv_pos_site_id
 _symmetry_equiv_pos_as_xyz
  1  'x, y, z'
loop_
 _atom_site_type_symbol
 _atom_site_label
 _atom_site_symmetry_multiplicity
 _atom_site_fract_x
 _atom_site_fract_y
 _atom_site_fract_z
 _atom_site_occupancy
 _atom_site_hle17_bader_spin_density
 _atom_site_hle17_ddec_charge
 _atom_site_hle17_ddec_spin_density
 _atom_site_hle17_ddec_sum_bond_order
 _atom_site_hle17_magmom
 _atom_site_hse06_10hf_bader_spin_density
 _atom_site_hse06_10hf_ddec_charge
 _atom_site_hse06_10hf_ddec_spin_density
 _atom_site_hse06_10hf_ddec_sum_bond_order
 _atom_site_hse06_10hf_magmom
 _atom_site_hse06_bader_spin_density
 _atom_site_hse06_ddec_charge
 _atom_site_hse06_ddec_spin_density
 _atom_site_hse06_ddec_sum_bond_order
 _atom_site_hse06_magmom
 _atom_site_pbe_bader_spin_density
 _atom_site_pbe_cm5_charge
 _atom_site_pbe_ddec_charge
 _atom_site_pbe_ddec_spin_density
 _atom_site_pbe_ddec_sum_bond_order
 _atom_site_pbe_magmom
Ag  Ag0  1  0.20677168  0.71444201  0.45327810  1  0  0.453662  0  1.450816  0  0  0.282557  0  1.896129  0  0  0.310508  0  1.857221  0  0  0.472686  0.264205  0  1.922931  0
Ag  Ag1  1  0.79322802  0.28555582  0.54672159  1  0  0.453621  0  1.450757  0  0  0.282491  0  1.896023  0  0  0.31045  0  1.857123  0  0  0.472677  0.264133  0  1.92282  0
H  H2  1  0.37546291  0.59043973  0.00699963  1  0  0.101216  0  0.9523  0  0  0.114217  0  1.009483  0  0  0.116719  0  1.007727  0  0  0.11143  0.112282  0  1.010876  0
H  H3  1  0.62454419  0.40956682  0.99300856  1  0  0.101243  0  0.952288  0  0  0.114311  0  1.009403  0  0  0.11682  0  1.007624  0  0  0.111384  0.112366  0  1.010818  0
H  H4  1  0.57468067  0.73684386  0.73750624  1  0  0.106951  0  0.952772  0  0  0.113613  0  1.020092  0  0  0.117307  0  1.01801  0  0  0.105937  0.11097  0  1.021665  0
H  H5  1  0.42530946  0.26315837  0.26249492  1  0  0.107067  0  0.95255  0  0  0.113697  0  1.019935  0  0  0.117397  0  1.017843  0  0  0.105963  0.111052  0  1.021509  0
H  H6  1  0.30777136  0.02180652  0.54995143  1  0  0.062641  0  0.967768  0  0  0.073289  0  1.036325  0  0  0.075469  0  1.033437  0  0  0.10724  0.071687  0  1.038576  0
H  H7  1  0.69222210  0.97818473  0.45005958  1  0  0.062647  0  0.967635  0  0  0.073285  0  1.036208  0  0  0.075464  0  1.033322  0  0  0.107244  0.071681  0  1.038461  0
H  H8  1  0.68412319  0.01188056  0.87543078  1  0  0.087701  0  0.999769  0  0  0.084126  0  1.083797  0  0  0.088183  0  1.079987  0  0  0.112625  0.081128  0  1.086445  0
H  H9  1  0.31586793  0.98810898  0.12456577  1  0  0.087672  0  0.99983  0  0  0.084072  0  1.083903  0  0  0.088139  0  1.080078  0  0  0.112594  0.081071  0  1.086553  0
C  C10  1  0.88335948  0.70190855  0.11115651  1  0  0.240142  0  3.830229  0  0  0.22294  0  4.101619  0  0  0.22959  0  4.120952  0  0  0.20257  0.218668  0  4.08827  0
C  C11  1  0.11663984  0.29809865  0.88884556  1  0  0.240348  0  3.829585  0  0  0.223055  0  4.101088  0  0  0.229712  0  4.120417  0  0  0.202616  0.218769  0  4.087763  0
C  C12  1  0.01323126  0.78724097  0.95989691  1  0  -0.018553  0  3.764447  0  0  0.003675  0  3.992968  0  0  -0.001659  0  4.015826  0  0  0.006882  0.006787  0  3.977646  0
C  C13  1  0.98679865  0.21273945  0.04012019  1  0  -0.018798  0  3.764383  0  0  0.003461  0  3.992971  0  0  -0.001872  0  4.015823  0  0  0.006781  0.006564  0  3.977669  0
C  C14  1  0.26797237  0.71206454  0.92008374  1  0  -0.007344  0  3.659709  0  0  -0.041436  0  3.909979  0  0  -0.037018  0  3.927095  0  0  -0.058673  -0.043441  0  3.898006  0
C  C15  1  0.73200546  0.28793101  0.07991949  1  0  -0.007462  0  3.659754  0  0  -0.041588  0  3.909972  0  0  -0.037181  0  3.927128  0  0  -0.058678  -0.043592  0  3.897995  0
C  C16  1  0.37791985  0.79437034  0.77154343  1  0  -0.125151  0  3.766432  0  0  -0.133203  0  4.017968  0  0  -0.140714  0  4.039901  0  0  -0.086571  -0.128334  0  4.003117  0
C  C17  1  0.62207036  0.20562488  0.22844701  1  0  -0.125285  0  3.766765  0  0  -0.133337  0  4.018327  0  0  -0.140851  0  4.040242  0  0  -0.086666  -0.128453  0  4.003431  0
C  C18  1  0.23139324  0.95165694  0.66754072  1  0  0.095762  0  3.742004  0  0  0.065598  0  3.989259  0  0  0.072183  0  4.008297  0  0  0.033009  0.060837  0  3.977423  0
C  C19  1  0.76860269  0.04834692  0.33244969  1  0  0.09588  0  3.742295  0  0  0.06576  0  3.989558  0  0  0.072351  0  4.008569  0  0  0.033076  0.061025  0  3.977673  0
C  C20  1  0.88116525  0.94678122  0.84906926  1  0  0.095256  0  3.637218  0  0  0.058421  0  3.878854  0  0  0.064978  0  3.896671  0  0  0.04689  0.053585  0  3.867679  0
C  C21  1  0.11885939  0.05322140  0.15093557  1  0  0.095618  0  3.637343  0  0  0.058863  0  3.878929  0  0  0.065354  0  3.896835  0  0  0.047123  0.054003  0  3.867821  0
N  N22  1  0.65632648  0.77583537  0.16355847  1  0  -0.278529  0  2.994273  0  0  -0.251372  0  3.266266  0  0  -0.261773  0  3.28331  0  0  -0.208443  -0.24342  0  3.253802  0
N  N23  1  0.34368884  0.22415637  0.83643547  1  0  -0.278543  0  2.993711  0  0  -0.251365  0  3.265722  0  0  -0.261768  0  3.282771  0  0  -0.20841  -0.243404  0  3.253264  0
N  N24  1  0.60141847  0.65693340  0.30275868  1  0  -0.114916  0  3.156299  0  0  -0.070861  0  3.462353  0  0  -0.075147  0  3.47396  0  0  -0.124545  -0.067792  0  3.454408  0
N  N25  1  0.39858837  0.34307869  0.69723578  1  0  -0.114957  0  3.156077  0  0  -0.070891  0  3.462118  0  0  -0.075176  0  3.473731  0  0  -0.124624  -0.06782  0  3.454171  0
N  N26  1  0.78911654  0.51480390  0.33346535  1  0  -0.103814  0  3.332203  0  0  -0.036824  0  3.647557  0  0  -0.046081  0  3.66135  0  0  -0.148708  -0.030314  0  3.638813  0
N  N27  1  0.21089043  0.48521011  0.66653281  1  0  -0.103973  0  3.332254  0  0  -0.036997  0  3.647659  0  0  -0.046256  0  3.661452  0  0  -0.148787  -0.030486  0  3.638914  0
N  N28  1  0.96939667  0.53919663  0.21510571  1  0  -0.303238  0  2.934028  0  0  -0.286331  0  3.207854  0  0  -0.294519  0  3.222977  0  0  -0.223187  -0.281205  0  3.198058  0
N  N29  1  0.03059713  0.46081018  0.78488933  1  0  -0.303182  0  2.933818  0  0  -0.286243  0  3.207667  0  0  -0.294431  0  3.22279  0  0  -0.22313  -0.281107  0  3.197875  0
N  N30  1  0.98841319  0.02743080  0.70566572  1  0  -0.291756  0  3.355138  0  0  -0.198351  0  3.629282  0  0  -0.21797  0  3.648284  0  0  -0.34914  -0.185577  0  3.6168  0
N  N31  1  0.01155514  0.97256214  0.29432826  1  0  -0.291924  0  3.355301  0  0  -0.198633  0  3.629584  0  0  -0.218206  0  3.648539  0  0  -0.349167  -0.18587  0  3.617104  0
