# generated using pymatgen
data_Al2H5C5O8
_symmetry_space_group_name_H-M   'P 1'
_cell_length_a   7.14142987
_cell_length_b   7.48177298
_cell_length_c   11.11111265
_cell_angle_alpha   107.51307603
_cell_angle_beta   106.49506748
_cell_angle_gamma   96.39112934
_symmetry_Int_Tables_number   1
_chemical_formula_structural   Al2H5C5O8
_chemical_formula_sum   'Al4 H10 C10 O16'
_cell_volume   530.13837481
_cell_formula_units_Z   2
loop_
 _symmetry_equiv_pos_site_id
 _symmetry_equiv_pos_as_xyz
  1  'x, y, z'
loop_
 _atom_site_type_symbol
 _atom_site_label
 _atom_site_symmetry_multiplicity
 _atom_site_fract_x
 _atom_site_fract_y
 _atom_site_fract_z
 _atom_site_occupancy
 _atom_site_hle17_bader_spin_density
 _atom_site_hle17_ddec_charge
 _atom_site_hle17_ddec_spin_density
 _atom_site_hle17_ddec_sum_bond_order
 _atom_site_hle17_magmom
 _atom_site_hse06_10hf_bader_spin_density
 _atom_site_hse06_10hf_ddec_charge
 _atom_site_hse06_10hf_ddec_spin_density
 _atom_site_hse06_10hf_ddec_sum_bond_order
 _atom_site_hse06_10hf_magmom
 _atom_site_hse06_bader_spin_density
 _atom_site_hse06_ddec_charge
 _atom_site_hse06_ddec_spin_density
 _atom_site_hse06_ddec_sum_bond_order
 _atom_site_hse06_magmom
 _atom_site_pbe_bader_spin_density
 _atom_site_pbe_cm5_charge
 _atom_site_pbe_ddec_charge
 _atom_site_pbe_ddec_spin_density
 _atom_site_pbe_ddec_sum_bond_order
 _atom_site_pbe_magmom
Al  Al0  1  0.29179808  0.29180572  0.58364274  1  0  1.777449  0  2.225404  0  0  1.650353  0  2.537063  0  0  1.683905  0  2.492969  0  0  0.384717  1.626  0  2.568352  0
Al  Al1  1  0.70820554  0.70819817  0.41635758  1  0  1.77746  0  2.225616  0  0  1.650278  0  2.537234  0  0  1.68383  0  2.493136  0  0  0.384683  1.62593  0  2.56852  0
Al  Al2  1  0.50000493  0.00000457  0.50000190  1  0  1.773501  0  2.222714  0  0  1.642531  0  2.539366  0  0  1.676708  0  2.494418  0  0  0.388208  1.617786  0  2.571519  0
Al  Al3  1  0.00000399  0.49999822  0.49999604  1  0  1.774652  0  2.223558  0  0  1.644881  0  2.537908  0  0  1.678922  0  2.493113  0  0  0.388707  1.620468  0  2.569082  0
H  H4  1  0.45132209  0.66545990  0.99994134  1  0  0.11552  0  0.927738  0  0  0.123521  0  0.990139  0  0  0.127651  0  0.987071  0  0  0.113086  0.120434  0  0.992638  0
H  H5  1  0.54867644  0.33453392  0.00005781  1  0  0.115452  0  0.927888  0  0  0.123473  0  0.990279  0  0  0.127593  0  0.987208  0  0  0.113066  0.120382  0  0.99277  0
H  H6  1  0.65368621  0.33073913  0.67117812  1  0  0.436131  0  0.809673  0  0  0.420348  0  0.8535  0  0  0.42763  0  0.846158  0  0  0.352847  0.415207  0  0.858801  0
H  H7  1  0.01748010  0.34050877  0.67124610  1  0  0.435896  0  0.810629  0  0  0.420169  0  0.854248  0  0  0.427419  0  0.846948  0  0  0.353235  0.414979  0  0.859593  0
H  H8  1  0.34631644  0.66927334  0.32883367  1  0  0.436164  0  0.809661  0  0  0.420382  0  0.853485  0  0  0.42766  0  0.846149  0  0  0.352838  0.415242  0  0.858783  0
H  H9  1  0.98251379  0.65949077  0.32874798  1  0  0.435933  0  0.810586  0  0  0.420199  0  0.854226  0  0  0.427452  0  0.846919  0  0  0.353219  0.415008  0  0.859577  0
H  H10  1  0.32341741  0.52349398  0.46115905  1  0  0.454122  0  0.83203  0  0  0.422625  0  0.894099  0  0  0.432938  0  0.878818  0  0  0.32526  0.415283  0  0.904976  0
H  H11  1  0.13766012  0.93758460  0.46120679  1  0  0.453565  0  0.832823  0  0  0.422108  0  0.894778  0  0  0.432399  0  0.879529  0  0  0.325046  0.414798  0  0.905605  0
H  H12  1  0.67658927  0.47651709  0.53884778  1  0  0.454082  0  0.83206  0  0  0.422568  0  0.894175  0  0  0.432852  0  0.878928  0  0  0.325195  0.415228  0  0.90505  0
H  H13  1  0.86234994  0.06242221  0.53878988  1  0  0.453572  0  0.8328  0  0  0.422114  0  0.894755  0  0  0.432403  0  0.879507  0  0  0.32504  0.414796  0  0.90559  0
C  C14  1  0.32938983  0.68025666  0.75026009  1  0  0.705844  0  3.823583  0  0  0.648926  0  4.125888  0  0  0.683886  0  4.113894  0  0  0.264181  0.625225  0  4.133478  0
C  C15  1  0.42131012  0.07012559  0.75037069  1  0  0.704568  0  3.827666  0  0  0.646958  0  4.131188  0  0  0.681849  0  4.119337  0  0  0.262457  0.622969  0  4.139151  0
C  C16  1  0.67060232  0.31974143  0.24973788  1  0  0.705828  0  3.823443  0  0  0.648839  0  4.125841  0  0  0.683793  0  4.113859  0  0  0.264183  0.625138  0  4.133426  0
C  C17  1  0.57868611  0.92987108  0.24962953  1  0  0.704561  0  3.827674  0  0  0.646926  0  4.131196  0  0  0.681826  0  4.119331  0  0  0.262411  0.622938  0  4.139154  0
C  C18  1  0.42611375  0.84513784  0.87877864  1  0  -0.037732  0  3.700187  0  0  -0.028962  0  3.940947  0  0  -0.033102  0  3.960232  0  0  0.004333  -0.026408  0  3.928175  0
C  C19  1  0.45301088  0.03371156  0.87884744  1  0  -0.038262  0  3.700443  0  0  -0.029246  0  3.941315  0  0  -0.033367  0  3.960583  0  0  0.004796  -0.026657  0  3.928582  0
C  C20  1  0.57387278  0.15485447  0.12121984  1  0  -0.037533  0  3.70001  0  0  -0.028801  0  3.94084  0  0  -0.032937  0  3.960123  0  0  0.004316  -0.026247  0  3.928066  0
C  C21  1  0.54698149  0.96628079  0.12115210  1  0  -0.038497  0  3.700568  0  0  -0.029469  0  3.941467  0  0  -0.033597  0  3.960737  0  0  0.004734  -0.026878  0  3.928733  0
C  C22  1  0.47498306  0.81199100  0.99995582  1  0  -0.074224  0  3.679247  0  0  -0.110333  0  3.932466  0  0  -0.110138  0  3.950364  0  0  -0.069598  -0.110451  0  3.920702  0
C  C23  1  0.52500346  0.18800131  0.00004266  1  0  -0.074265  0  3.679387  0  0  -0.110379  0  3.932636  0  0  -0.110168  0  3.95052  0  0  -0.069589  -0.110484  0  3.920858  0
O  O24  1  0.55715679  0.27631550  0.58117069  1  0  -1.002598  0  1.864872  0  0  -0.934444  0  2.072375  0  0  -0.954791  0  2.047993  0  0  -0.430654  -0.919492  0  2.089151  0
O  O25  1  0.02404654  0.30495529  0.58125522  1  0  -1.002565  0  1.865636  0  0  -0.934005  0  2.072133  0  0  -0.954437  0  2.047875  0  0  -0.431361  -0.919353  0  2.088827  0
O  O26  1  0.44285221  0.72369271  0.41883867  1  0  -1.002644  0  1.86483  0  0  -0.934464  0  2.072334  0  0  -0.954816  0  2.047957  0  0  -0.430603  -0.919538  0  2.089158  0
O  O27  1  0.97595319  0.69504429  0.41873992  1  0  -1.0026  0  1.865588  0  0  -0.934069  0  2.072129  0  0  -0.954505  0  2.047874  0  0  -0.431373  -0.919418  0  2.088821  0
O  O28  1  0.22455715  0.42362886  0.46385977  1  0  -1.042718  0  1.829484  0  0  -0.977903  0  2.039804  0  0  -0.997476  0  2.008802  0  0  -0.455378  -0.963761  0  2.061347  0
O  O29  1  0.23928111  0.04018514  0.46401041  1  0  -1.041837  0  1.830199  0  0  -0.977093  0  2.041211  0  0  -0.996584  0  2.01014  0  0  -0.455243  -0.96285  0  2.062867  0
O  O30  1  0.77544907  0.57637362  0.53613892  1  0  -1.04275  0  1.82952  0  0  -0.977836  0  2.039747  0  0  -0.997371  0  2.008817  0  0  -0.455289  -0.963698  0  2.061282  0
O  O31  1  0.76073045  0.95982167  0.53599103  1  0  -1.041802  0  1.830121  0  0  -0.977064  0  2.041166  0  0  -0.996537  0  2.010087  0  0  -0.455228  -0.96281  0  2.062836  0
O  O32  1  0.40777713  0.53389594  0.73353948  1  0  -0.666409  0  2.101197  0  0  -0.61555  0  2.339559  0  0  -0.637457  0  2.325555  0  0  -0.242098  -0.600372  0  2.348917  0
O  O33  1  0.32590636  0.19953253  0.73354387  1  0  -0.665461  0  2.103895  0  0  -0.614676  0  2.342975  0  0  -0.636523  0  2.328979  0  0  -0.240864  -0.59932  0  2.352434  0
O  O34  1  0.59222236  0.46610218  0.26646431  1  0  -0.666359  0  2.101346  0  0  -0.615468  0  2.339741  0  0  -0.637376  0  2.325741  0  0  -0.242077  -0.600288  0  2.349096  0
O  O35  1  0.67409037  0.80045986  0.26645196  1  0  -0.665459  0  2.103861  0  0  -0.614635  0  2.342927  0  0  -0.636488  0  2.32893  0  0  -0.240824  -0.599277  0  2.352382  0
O  O36  1  0.16942475  0.69526165  0.67004349  1  0  -0.642841  0  2.072238  0  0  -0.588716  0  2.305336  0  0  -0.611219  0  2.292591  0  0  -0.226721  -0.573169  0  2.313787  0
O  O37  1  0.50122857  0.97504048  0.67021049  1  0  -0.642422  0  2.073074  0  0  -0.587714  0  2.306416  0  0  -0.610342  0  2.293814  0  0  -0.226481  -0.572114  0  2.315156  0
O  O38  1  0.83057436  0.30473506  0.32995095  1  0  -0.642897  0  2.072099  0  0  -0.588699  0  2.305192  0  0  -0.611186  0  2.292435  0  0  -0.226715  -0.573155  0  2.313648  0
O  O39  1  0.49878176  0.02496058  0.32979315  1  0  -0.642423  0  2.073136  0  0  -0.587673  0  2.306464  0  0  -0.610302  0  2.293855  0  0  -0.226462  -0.572073  0  2.315202  0
