# generated using pymatgen
data_YH6C5O8
_symmetry_space_group_name_H-M   'P 1'
_cell_length_a   6.69090354
_cell_length_b   6.69087179
_cell_length_c   11.16515314
_cell_angle_alpha   105.37935853
_cell_angle_beta   105.37813168
_cell_angle_gamma   94.19808118
_symmetry_Int_Tables_number   1
_chemical_formula_structural   YH6C5O8
_chemical_formula_sum   'Y2 H12 C10 O16'
_cell_volume   459.11551049
_cell_formula_units_Z   2
loop_
 _symmetry_equiv_pos_site_id
 _symmetry_equiv_pos_as_xyz
  1  'x, y, z'
loop_
 _atom_site_type_symbol
 _atom_site_label
 _atom_site_symmetry_multiplicity
 _atom_site_fract_x
 _atom_site_fract_y
 _atom_site_fract_z
 _atom_site_occupancy
 _atom_site_hle17_bader_spin_density
 _atom_site_hle17_ddec_charge
 _atom_site_hle17_ddec_spin_density
 _atom_site_hle17_ddec_sum_bond_order
 _atom_site_hle17_magmom
 _atom_site_hse06_10hf_bader_spin_density
 _atom_site_hse06_10hf_ddec_charge
 _atom_site_hse06_10hf_ddec_spin_density
 _atom_site_hse06_10hf_ddec_sum_bond_order
 _atom_site_hse06_10hf_magmom
 _atom_site_hse06_bader_spin_density
 _atom_site_hse06_ddec_charge
 _atom_site_hse06_ddec_spin_density
 _atom_site_hse06_ddec_sum_bond_order
 _atom_site_hse06_magmom
 _atom_site_pbe_bader_spin_density
 _atom_site_pbe_cm5_charge
 _atom_site_pbe_ddec_charge
 _atom_site_pbe_ddec_spin_density
 _atom_site_pbe_ddec_sum_bond_order
 _atom_site_pbe_magmom
Y  Y0  1  0.87890789  0.87889762  0.69988439  1  0  2.008902  0  1.912749  0  0  1.803567  0  2.413301  0  0  1.875532  0  2.347173  0  0  1.299484  1.750407  0  2.459233  0
Y  Y1  1  0.12110098  0.12108484  0.30010949  1  0  2.008761  0  1.912619  0  0  1.803377  0  2.413266  0  0  1.87545  0  2.346947  0  0  1.299426  1.750209  0  2.459187  0
H  H2  1  0.75621714  0.91219513  0.43330402  1  0  0.429566  0  0.86029  0  0  0.39495  0  0.940217  0  0  0.407072  0  0.922344  0  0  0.308247  0.386095  0  0.953271  0
H  H3  1  0.08781358  0.24380274  0.56668592  1  0  0.429539  0  0.860515  0  0  0.394984  0  0.94019  0  0  0.407109  0  0.922311  0  0  0.308302  0.386133  0  0.953241  0
H  H4  1  0.24373315  0.08781156  0.56670324  1  0  0.42957  0  0.860502  0  0  0.39497  0  0.940219  0  0  0.40709  0  0.922348  0  0  0.308306  0.386118  0  0.953268  0
H  H5  1  0.91219827  0.75625644  0.43330715  1  0  0.429577  0  0.860475  0  0  0.395013  0  0.940132  0  0  0.407132  0  0.922263  0  0  0.308337  0.386167  0  0.953174  0
H  H6  1  0.45865564  0.67863269  0.30575034  1  0  0.116027  0  0.935877  0  0  0.125175  0  1.00035  0  0  0.128155  0  0.997524  0  0  0.124416  0.122964  0  1.002525  0
H  H7  1  0.32135758  0.54135979  0.69424798  1  0  0.116042  0  0.935873  0  0  0.125197  0  1.000341  0  0  0.128177  0  0.997517  0  0  0.124421  0.122993  0  1.002512  0
H  H8  1  0.54134101  0.32136212  0.69424446  1  0  0.116026  0  0.935824  0  0  0.125159  0  1.000362  0  0  0.128141  0  0.997536  0  0  0.124394  0.122951  0  1.002531  0
H  H9  1  0.67864174  0.45864290  0.30575834  1  0  0.116015  0  0.935945  0  0  0.125126  0  1.000407  0  0  0.128104  0  0.997579  0  0  0.124419  0.122924  0  1.002578  0
H  H10  1  0.26152090  0.58287488  0.15198794  1  0  0.118938  0  0.908883  0  0  0.127299  0  0.967834  0  0  0.1307  0  0.964333  0  0  0.120011  0.124721  0  0.970617  0
H  H11  1  0.41710756  0.73849720  0.84801194  1  0  0.118882  0  0.909  0  0  0.127262  0  0.967931  0  0  0.130664  0  0.96443  0  0  0.119986  0.124692  0  0.970712  0
H  H12  1  0.73846645  0.41711980  0.84801164  1  0  0.118896  0  0.908924  0  0  0.127265  0  0.967908  0  0  0.130667  0  0.964408  0  0  0.120001  0.12469  0  0.970684  0
H  H13  1  0.58290504  0.26152289  0.15199028  1  0  0.118859  0  0.908995  0  0  0.127201  0  0.967909  0  0  0.130598  0  0.964411  0  0  0.119977  0.124629  0  0.970693  0
C  C14  1  0.31573779  0.56459287  0.25000717  1  0  -0.083186  0  3.60013  0  0  -0.138397  0  3.858805  0  0  -0.136477  0  3.85896  0  0  -0.058312  -0.13973  0  3.858783  0
C  C15  1  0.43539713  0.68427483  0.74999710  1  0  -0.082945  0  3.60032  0  0  -0.13825  0  3.858881  0  0  -0.136348  0  3.859047  0  0  -0.058214  -0.139603  0  3.858885  0
C  C16  1  0.68425399  0.43540032  0.74999467  1  0  -0.082936  0  3.599933  0  0  -0.13829  0  3.858736  0  0  -0.136374  0  3.858886  0  0  -0.058275  -0.139615  0  3.858696  0
C  C17  1  0.56460883  0.31573108  0.25000540  1  0  -0.082946  0  3.600495  0  0  -0.137992  0  3.858798  0  0  -0.136078  0  3.858966  0  0  -0.058212  -0.139344  0  3.858811  0
C  C18  1  0.15016606  0.61156138  0.31918323  1  0  0.729409  0  3.80468  0  0  0.673937  0  4.109827  0  0  0.70948  0  4.099437  0  0  0.241034  0.649434  0  4.116433  0
C  C19  1  0.38845121  0.84985630  0.68082291  1  0  0.728954  0  3.804841  0  0  0.673717  0  4.109607  0  0  0.709283  0  4.099172  0  0  0.2408  0.649211  0  4.116213  0
C  C20  1  0.84983792  0.38844138  0.68082295  1  0  0.729136  0  3.804774  0  0  0.673802  0  4.109755  0  0  0.709349  0  4.099352  0  0  0.240981  0.649282  0  4.116374  0
C  C21  1  0.61154832  0.15014795  0.31917653  1  0  0.728896  0  3.804676  0  0  0.673526  0  4.109576  0  0  0.70909  0  4.09915  0  0  0.240727  0.64902  0  4.116182  0
C  C22  1  0.92094617  0.07904551  0.99999421  1  0  0.552331  0  3.944423  0  0  0.50952  0  4.241333  0  0  0.540326  0  4.232234  0  0  0.216013  0.488483  0  4.246877  0
C  C23  1  0.07905247  0.92094246  0.00000586  1  0  0.552108  0  3.94462  0  0  0.509293  0  4.241541  0  0  0.540096  0  4.232447  0  0  0.215945  0.488258  0  4.247087  0
O  O24  1  0.35521316  0.35519617  0.24507188  1  0  -0.339976  0  2.459006  0  0  -0.256261  0  2.701437  0  0  -0.276465  0  2.707227  0  0  -0.255697  -0.241903  0  2.696863  0
O  O25  1  0.64479304  0.64480035  0.75492828  1  0  -0.340081  0  2.458838  0  0  -0.256222  0  2.701322  0  0  -0.276407  0  2.707111  0  0  -0.255698  -0.241855  0  2.696728  0
O  O26  1  0.08390076  0.47451202  0.36487134  1  0  -0.661002  0  1.986154  0  0  -0.596976  0  2.227238  0  0  -0.62581  0  2.216861  0  0  -0.354718  -0.576441  0  2.233864  0
O  O27  1  0.52547436  0.91611659  0.63513572  1  0  -0.660905  0  1.986837  0  0  -0.596838  0  2.227677  0  0  -0.625664  0  2.217295  0  0  -0.354648  -0.576298  0  2.2343  0
O  O28  1  0.91611126  0.52547053  0.63514276  1  0  -0.660885  0  1.986643  0  0  -0.596924  0  2.227696  0  0  -0.625743  0  2.217322  0  0  -0.354772  -0.576382  0  2.23433  0
O  O29  1  0.47453603  0.08387683  0.36485297  1  0  -0.660694  0  1.986934  0  0  -0.596595  0  2.22784  0  0  -0.62543  0  2.217454  0  0  -0.354565  -0.57606  0  2.234462  0
O  O30  1  0.08492093  0.78754619  0.33040177  1  0  -0.696778  0  2.032318  0  0  -0.628034  0  2.280225  0  0  -0.658526  0  2.268204  0  0  -0.357  -0.606211  0  2.287854  0
O  O31  1  0.21243580  0.91510142  0.66960360  1  0  -0.696607  0  2.031756  0  0  -0.627974  0  2.279562  0  0  -0.658464  0  2.267532  0  0  -0.356866  -0.606171  0  2.287255  0
O  O32  1  0.91509110  0.21243637  0.66961502  1  0  -0.696816  0  2.032043  0  0  -0.628055  0  2.279825  0  0  -0.65854  0  2.267806  0  0  -0.356919  -0.606239  0  2.287507  0
O  O33  1  0.78757747  0.08490145  0.33038973  1  0  -0.696704  0  2.031385  0  0  -0.628056  0  2.279287  0  0  -0.658567  0  2.267257  0  0  -0.356866  -0.606249  0  2.286969  0
O  O34  1  0.82633066  0.10001089  0.89077556  1  0  -0.635144  0  2.049841  0  0  -0.584674  0  2.290918  0  0  -0.611401  0  2.281431  0  0  -0.346828  -0.565761  0  2.296944  0
O  O35  1  0.89998308  0.17368863  0.10922745  1  0  -0.635151  0  2.049374  0  0  -0.584663  0  2.290425  0  0  -0.611411  0  2.280938  0  0  -0.346714  -0.565745  0  2.296449  0
O  O36  1  0.17365444  0.89997904  0.10921216  1  0  -0.634895  0  2.050099  0  0  -0.584403  0  2.291157  0  0  -0.61114  0  2.281672  0  0  -0.346681  -0.565496  0  2.297185  0
O  O37  1  0.10001555  0.82632029  0.89076989  1  0  -0.635164  0  2.049285  0  0  -0.584691  0  2.290352  0  0  -0.611424  0  2.280867  0  0  -0.34683  -0.565776  0  2.29638  0
O  O38  1  0.79736711  0.79734642  0.47091945  1  0  -0.856822  0  1.892239  0  0  -0.803521  0  2.112832  0  0  -0.825962  0  2.076548  0  0  -0.613691  -0.787252  0  2.138545  0
O  O39  1  0.20263621  0.20264066  0.52907876  1  0  -0.856798  0  1.892582  0  0  -0.803525  0  2.112961  0  0  -0.825984  0  2.076669  0  0  -0.61372  -0.787252  0  2.138673  0
