# generated using pymatgen
data_NaBH8(CO)4
_symmetry_space_group_name_H-M   'P 1'
_cell_length_a   5.72743287
_cell_length_b   7.94395063
_cell_length_c   8.28433409
_cell_angle_alpha   61.33366400
_cell_angle_beta   82.90376045
_cell_angle_gamma   75.07761496
_symmetry_Int_Tables_number   1
_chemical_formula_structural   NaBH8(CO)4
_chemical_formula_sum   'Na2 B2 H16 C8 O8'
_cell_volume   319.57052002
_cell_formula_units_Z   2
loop_
 _symmetry_equiv_pos_site_id
 _symmetry_equiv_pos_as_xyz
  1  'x, y, z'
loop_
 _atom_site_type_symbol
 _atom_site_label
 _atom_site_symmetry_multiplicity
 _atom_site_fract_x
 _atom_site_fract_y
 _atom_site_fract_z
 _atom_site_occupancy
 _atom_site_hle17_bader_spin_density
 _atom_site_hle17_ddec_charge
 _atom_site_hle17_ddec_spin_density
 _atom_site_hle17_ddec_sum_bond_order
 _atom_site_hle17_magmom
 _atom_site_hse06_10hf_bader_spin_density
 _atom_site_hse06_10hf_ddec_charge
 _atom_site_hse06_10hf_ddec_spin_density
 _atom_site_hse06_10hf_ddec_sum_bond_order
 _atom_site_hse06_10hf_magmom
 _atom_site_hse06_bader_spin_density
 _atom_site_hse06_ddec_charge
 _atom_site_hse06_ddec_spin_density
 _atom_site_hse06_ddec_sum_bond_order
 _atom_site_hse06_magmom
 _atom_site_pbe_bader_spin_density
 _atom_site_pbe_cm5_charge
 _atom_site_pbe_ddec_charge
 _atom_site_pbe_ddec_spin_density
 _atom_site_pbe_ddec_sum_bond_order
 _atom_site_pbe_magmom
Na  Na0  1  0.75040053  0.08131026  0.83749813  1  0  0.905483  0  0.389094  0  0  0.855889  0  0.531344  0  0  0.86837  0  0.509721  0  0  0.814467  0.84681  0  0.546658  0
Na  Na1  1  0.24959857  0.91869135  0.16250047  1  0  0.905485  0  0.38909  0  0  0.855879  0  0.531343  0  0  0.868365  0  0.509718  0  0  0.814467  0.846823  0  0.546629  0
B  B2  1  0.74952785  0.87955403  0.24093423  1  0  0.972937  0  2.988169  0  0  0.826022  0  3.325808  0  0  0.857103  0  3.301258  0  0  -0.077033  0.804095  0  3.343727  0
B  B3  1  0.25047165  0.12044676  0.75906372  1  0  0.972889  0  2.988224  0  0  0.825971  0  3.325875  0  0  0.857051  0  3.301325  0  0  -0.077051  0.804041  0  3.343797  0
H  H4  1  0.05718739  0.50438011  0.19074002  1  0  0.038308  0  0.940774  0  0  0.053381  0  1.01053  0  0  0.054041  0  1.008895  0  0  0.096688  0.052764  0  1.011834  0
H  H5  1  0.55819253  0.69523115  0.80889090  1  0  0.038756  0  0.940705  0  0  0.053888  0  1.010264  0  0  0.054616  0  1.008573  0  0  0.09673  0.053236  0  1.011591  0
H  H6  1  0.94281252  0.49561863  0.80925851  1  0  0.038337  0  0.940768  0  0  0.053379  0  1.010555  0  0  0.054041  0  1.008919  0  0  0.09669  0.052763  0  1.011858  0
H  H7  1  0.44180617  0.30477009  0.19110955  1  0  0.038768  0  0.940705  0  0  0.053891  0  1.010265  0  0  0.054619  0  1.008575  0  0  0.096723  0.053239  0  1.011593  0
H  H8  1  0.78445149  0.62336279  0.05854718  1  0  0.034887  0  0.955548  0  0  0.047689  0  1.028721  0  0  0.048087  0  1.028391  0  0  0.09601  0.047264  0  1.029127  0
H  H9  1  0.28564655  0.68157688  0.94130904  1  0  0.034555  0  0.954835  0  0  0.04759  0  1.027656  0  0  0.048054  0  1.027256  0  0  0.095951  0.04712  0  1.028109  0
H  H10  1  0.21554938  0.37663747  0.94145278  1  0  0.034865  0  0.95555  0  0  0.047665  0  1.028727  0  0  0.048062  0  1.028397  0  0  0.095998  0.047238  0  1.029135  0
H  H11  1  0.71435527  0.31842369  0.05869355  1  0  0.034535  0  0.954868  0  0  0.047583  0  1.027678  0  0  0.04805  0  1.027275  0  0  0.095952  0.047113  0  1.02813  0
H  H12  1  0.60475105  0.46326728  0.35944290  1  0  0.058625  0  0.943102  0  0  0.075059  0  1.005772  0  0  0.075204  0  1.005966  0  0  0.106514  0.074846  0  1.005759  0
H  H13  1  0.10537454  0.82279706  0.64064501  1  0  0.059189  0  0.943443  0  0  0.076097  0  1.005443  0  0  0.076256  0  1.005666  0  0  0.106956  0.075885  0  1.005394  0
H  H14  1  0.39525157  0.53673404  0.64055599  1  0  0.058613  0  0.943117  0  0  0.075036  0  1.005777  0  0  0.075182  0  1.005971  0  0  0.106488  0.074823  0  1.005765  0
H  H15  1  0.89462282  0.17720109  0.35935708  1  0  0.059204  0  0.943432  0  0  0.076096  0  1.005455  0  0  0.076255  0  1.005678  0  0  0.106942  0.075885  0  1.005405  0
H  H16  1  0.85112585  0.46067461  0.47169479  1  0  0.049629  0  0.937956  0  0  0.062948  0  1.004112  0  0  0.064081  0  1.002819  0  0  0.102196  0.062003  0  1.005234  0
H  H17  1  0.35167556  0.93242441  0.52816759  1  0  0.04987  0  0.938865  0  0  0.063004  0  1.005335  0  0  0.064212  0  1.003997  0  0  0.102106  0.062017  0  1.006483  0
H  H18  1  0.14887461  0.53932648  0.52830581  1  0  0.049652  0  0.937971  0  0  0.06294  0  1.004132  0  0  0.064075  0  1.002841  0  0  0.102174  0.061992  0  1.005255  0
H  H19  1  0.64832220  0.06757290  0.47183385  1  0  0.049839  0  0.93889  0  0  0.063002  0  1.005325  0  0  0.064211  0  1.003989  0  0  0.102087  0.062015  0  1.006474  0
C  C20  1  0.88213566  0.61004137  0.17228627  1  0  0.101752  0  3.667371  0  0  0.039279  0  3.94796  0  0  0.045894  0  3.95366  0  0  -0.065435  0.034881  0  3.943955  0
C  C21  1  0.38314294  0.78233242  0.82753906  1  0  0.101037  0  3.668991  0  0  0.038552  0  3.949733  0  0  0.045075  0  3.955477  0  0  -0.065549  0.034211  0  3.945708  0
C  C22  1  0.11786344  0.38995904  0.82771354  1  0  0.101756  0  3.667385  0  0  0.039291  0  3.947947  0  0  0.045904  0  3.953648  0  0  -0.065437  0.034893  0  3.943941  0
C  C23  1  0.61685616  0.21766799  0.17246075  1  0  0.100997  0  3.669138  0  0  0.038526  0  3.949827  0  0  0.04505  0  3.955569  0  0  -0.065559  0.034185  0  3.945802  0
C  C24  1  0.73254271  0.54963302  0.34988669  1  0  0.092954  0  3.651947  0  0  0.034184  0  3.927444  0  0  0.040587  0  3.93268  0  0  -0.063466  0.029905  0  3.923729  0
C  C25  1  0.23333021  0.89955809  0.65002380  1  0  0.091968  0  3.652912  0  0  0.032919  0  3.928582  0  0  0.039194  0  3.933961  0  0  -0.063957  0.028707  0  3.924811  0
C  C26  1  0.26746168  0.45036695  0.65011355  1  0  0.092922  0  3.652031  0  0  0.034241  0  3.927414  0  0  0.040638  0  3.932655  0  0  -0.063397  0.029965  0  3.923695  0
C  C27  1  0.76666931  0.10043907  0.34997778  1  0  0.091992  0  3.653  0  0  0.032917  0  3.928679  0  0  0.039192  0  3.934062  0  0  -0.063928  0.028705  0  3.924909  0
O  O28  1  0.91995769  0.79848393  0.12968082  1  0  -0.678036  0  2.177073  0  0  -0.596097  0  2.435326  0  0  -0.614376  0  2.425102  0  0  -0.338549  -0.58313  0  2.442041  0
O  O29  1  0.42078965  0.92801618  0.87029688  1  0  -0.676711  0  2.1779  0  0  -0.594801  0  2.436073  0  0  -0.613111  0  2.426002  0  0  -0.337353  -0.581815  0  2.442688  0
O  O30  1  0.08004142  0.20151528  0.87032020  1  0  -0.678025  0  2.17705  0  0  -0.59608  0  2.435282  0  0  -0.614357  0  2.425056  0  0  -0.33856  -0.583112  0  2.441996  0
O  O31  1  0.57921120  0.07198650  0.12970066  1  0  -0.676704  0  2.177913  0  0  -0.59481  0  2.436095  0  0  -0.613121  0  2.426025  0  0  -0.337349  -0.581825  0  2.442709  0
O  O32  1  0.60340347  0.73194286  0.34428810  1  0  -0.637527  0  2.162796  0  0  -0.55768  0  2.417853  0  0  -0.576548  0  2.40862  0  0  -0.303073  -0.544263  0  2.423844  0
O  O33  1  0.10439484  0.07635945  0.65560225  1  0  -0.637634  0  2.161287  0  0  -0.557873  0  2.416688  0  0  -0.576689  0  2.407388  0  0  -0.303184  -0.544496  0  2.422735  0
O  O34  1  0.39659779  0.26805777  0.65571000  1  0  -0.637518  0  2.162806  0  0  -0.557698  0  2.417841  0  0  -0.576565  0  2.40861  0  0  -0.303077  -0.544274  0  2.423827  0
O  O35  1  0.89560426  0.92364096  0.34439756  1  0  -0.637649  0  2.161322  0  0  -0.557881  0  2.41673  0  0  -0.576699  0  2.407432  0  0  -0.303182  -0.544509  0  2.422779  0
