# generated using pymatgen
data_ZnH3C6INO4
_symmetry_space_group_name_H-M   'P 1'
_cell_length_a   8.07499427
_cell_length_b   8.99741817
_cell_length_c   11.92395280
_cell_angle_alpha   92.13220802
_cell_angle_beta   84.16426333
_cell_angle_gamma   91.92319186
_symmetry_Int_Tables_number   1
_chemical_formula_structural   ZnH3C6INO4
_chemical_formula_sum   'Zn2 H6 C12 I2 N2 O8'
_cell_volume   860.85120018
_cell_formula_units_Z   2
loop_
 _symmetry_equiv_pos_site_id
 _symmetry_equiv_pos_as_xyz
  1  'x, y, z'
loop_
 _atom_site_type_symbol
 _atom_site_label
 _atom_site_symmetry_multiplicity
 _atom_site_fract_x
 _atom_site_fract_y
 _atom_site_fract_z
 _atom_site_occupancy
 _atom_site_pbe_bader_charge
 _atom_site_pbe_bader_spin_density
 _atom_site_pbe_cm5_charge
 _atom_site_pbe_ddec_charge
 _atom_site_pbe_ddec_spin_density
 _atom_site_pbe_ddec_sum_bond_order
 _atom_site_pbe_magmom
Zn  Zn0  1  0.67235016  0.51872677  0.48884993  1  1.296355  0  0.662472  0.842532  0  2.395881  0
Zn  Zn1  1  0.32766778  0.48130661  0.51112260  1  1.293835  0  0.662587  0.842579  0  2.396073  0
H  H2  1  0.33368057  0.91103279  0.69880322  1  0.033665  0  0.092786  0.135084  0  0.982785  0
H  H3  1  0.34079397  0.10234436  0.66181962  1  0.058801  0  0.088836  0.132351  0  1.021509  0
H  H4  1  0.20134780  0.97308898  0.60228194  1  0.06026  0  0.086766  0.124478  0  1.013105  0
H  H5  1  0.66616879  0.08906808  0.30121089  1  0.032125  0  0.092856  0.135181  0  0.982633  0
H  H6  1  0.79851410  0.02694933  0.39771991  1  0.06202  0  0.086698  0.124477  0  1.013207  0
H  H7  1  0.65905552  0.89775712  0.33812565  1  0.059565  0  0.08865  0.132017  0  1.02184  0
C  C8  1  0.48245259  0.78676928  0.51576905  1  1.54636  0  0.218666  0.603536  0  4.120325  0
C  C9  1  0.54320294  0.04964638  0.46617636  1  -0.072471  0  -0.011242  -0.000893  0  3.869192  0
C  C10  1  0.32706408  0.98756227  0.62980525  1  -0.042205  0  -0.245466  -0.393622  0  4.000834  0
C  C11  1  0.67277427  0.01251651  0.37019700  1  -0.042573  0  -0.245152  -0.393348  0  4.001163  0
C  C12  1  0.51729231  0.21320886  0.48423070  1  1.542396  0  0.219113  0.604026  0  4.119694  0
C  C13  1  0.51052952  0.49920797  0.27959463  1  1.712169  0  0.218381  0.661004  0  4.232487  0
C  C14  1  0.48980235  0.50074492  0.72040671  1  1.714818  0  0.218159  0.660923  0  4.233195  0
C  C15  1  0.50737776  0.49929442  0.15866222  1  0.141482  0  -0.015715  -0.140541  0  3.863946  0
C  C16  1  0.49291923  0.50056479  0.84133145  1  0.139985  0  -0.015946  -0.141313  0  3.863309  0
C  C17  1  0.50273564  0.49978332  0.05641713  1  -0.242783  0  -0.018589  0.017213  0  4.251769  0
C  C18  1  0.49756467  0.50003130  0.94359246  1  -0.345547  0  -0.018463  0.017963  0  4.251055  0
C  C19  1  0.45657595  0.95033942  0.53380372  1  0.023263  0  -0.010977  -0.000791  0  3.869258  0
I  I20  1  0.96770261  0.30424957  0.64017477  1  0.426251  0  0.312189  0.241839  0  1.311682  0
I  I21  1  0.03230393  0.69581664  0.35987387  1  0.425861  0  0.312119  0.241723  0  1.311536  0
N  N22  1  0.05382686  0.46830848  0.52192275  1  -0.353508  0  -0.13063  -0.027984  0  3.142487  0
N  N23  1  0.94616854  0.53174721  0.47812238  1  -0.291669  0  -0.130733  -0.027988  0  3.142477  0
O  O24  1  0.63022628  0.73972077  0.49799889  1  -1.144032  0  -0.312044  -0.537401  0  2.359199  0
O  O25  1  0.36947720  0.26025769  0.50170948  1  -1.142338  0  -0.312544  -0.53782  0  2.358217  0
O  O26  1  0.34948943  0.70499830  0.52306417  1  -1.163733  0  -0.320987  -0.561421  0  2.397981  0
O  O27  1  0.65026886  0.29495599  0.47725807  1  -1.162445  0  -0.320811  -0.561447  0  2.39804  0
O  O28  1  0.65218254  0.51970959  0.31667702  1  -1.141723  0  -0.310468  -0.539965  0  2.288456  0
O  O29  1  0.34821409  0.47988151  0.68328072  1  -1.141379  0  -0.31036  -0.539716  0  2.28867  0
O  O30  1  0.37014908  0.47894592  0.33708656  1  -1.139985  0  -0.315249  -0.556467  0  2.323578  0
O  O31  1  0.63009775  0.52145628  0.66292398  1  -1.142819  0  -0.314901  -0.556209  0  2.324125  0
