# generated using pymatgen
data_NiH6C6S2(BrN)2
_symmetry_space_group_name_H-M   'P 1'
_cell_length_a   3.76712281
_cell_length_b   11.50060543
_cell_length_c   11.94717419
_cell_angle_alpha   79.72108251
_cell_angle_beta   80.95282597
_cell_angle_gamma   80.42838911
_symmetry_Int_Tables_number   1
_chemical_formula_structural   NiH6C6S2(BrN)2
_chemical_formula_sum   'Ni2 H12 C12 S4 Br4 N4'
_cell_volume   497.84419243
_cell_formula_units_Z   2
loop_
 _symmetry_equiv_pos_site_id
 _symmetry_equiv_pos_as_xyz
  1  'x, y, z'
loop_
 _atom_site_type_symbol
 _atom_site_label
 _atom_site_symmetry_multiplicity
 _atom_site_fract_x
 _atom_site_fract_y
 _atom_site_fract_z
 _atom_site_occupancy
 _atom_site_hle17_ddec_charge
 _atom_site_hle17_ddec_spin_density
 _atom_site_hle17_ddec_sum_bond_order
 _atom_site_hle17_magmom
 _atom_site_hse06_10hf_ddec_charge
 _atom_site_hse06_10hf_ddec_spin_density
 _atom_site_hse06_10hf_ddec_sum_bond_order
 _atom_site_hse06_10hf_magmom
 _atom_site_hse06_ddec_charge
 _atom_site_hse06_ddec_spin_density
 _atom_site_hse06_ddec_sum_bond_order
 _atom_site_hse06_magmom
 _atom_site_pbe_cm5_charge
 _atom_site_pbe_ddec_charge
 _atom_site_pbe_ddec_spin_density
 _atom_site_pbe_ddec_sum_bond_order
 _atom_site_pbe_magmom
Ni  Ni0  1  0.57945007  0.75011057  0.74976902  1  0.546296  1.586562  2.195606  1.346  0.595599  1.695615  2.555164  1.502  0.714218  1.786276  2.469495  1.629  0.420597  0.51648  1.622026  2.612289  1.404
Ni  Ni1  1  0.42055790  0.24988791  0.25023100  1  0.546222  1.586557  2.195788  1.346  0.595493  1.695609  2.555384  1.502  0.714104  1.786258  2.469682  1.628  0.420577  0.516367  1.622017  2.612514  1.404
H  H2  1  0.63185228  0.57835608  0.98502029  1  0.110597  0.000507  0.974653  0.001  0.115887  0.000515  1.044384  0.0  0.119602  0.000379  1.03875  0.0  0.108271  0.113323  0.000682  1.048169  0.001
H  H3  1  0.70114639  0.92155139  0.51453946  1  0.111305  0.000524  0.973492  0.001  0.116832  0.000532  1.042871  0.0  0.120697  0.000391  1.037076  0.0  0.108954  0.113684  0.000673  1.04779  0.001
H  H4  1  0.36810145  0.42163972  0.01497639  1  0.110648  0.00051  0.974621  0.001  0.11593  0.000515  1.044354  0.0  0.119645  0.000379  1.03872  0.0  0.10829  0.113363  0.000682  1.048144  0.001
H  H5  1  0.29885789  0.07844977  0.48546001  1  0.111353  0.000524  0.973441  0.001  0.116886  0.000533  1.042824  0.0  0.12075  0.000391  1.037031  0.0  0.108963  0.11374  0.000674  1.047745  0.001
H  H6  1  0.21681510  0.91638523  0.13928415  1  0.131058  0.000566  0.998964  0.0  0.135553  0.000666  1.070354  0.0  0.14076  0.000468  1.066075  0.0  0.095616  0.131811  0.000853  1.073433  0.0
H  H7  1  0.77945856  0.58378854  0.36013766  1  0.131326  0.000618  0.998452  0.0  0.135893  0.000724  1.069825  0.0  0.141123  0.000509  1.065635  0.0  0.09549  0.132194  0.000866  1.073104  0.0
H  H8  1  0.78319831  0.08360883  0.86072380  1  0.131013  0.000565  0.999021  0.0  0.135541  0.000666  1.070348  0.0  0.14075  0.000468  1.066069  0.0  0.09564  0.131793  0.000853  1.073438  0.0
H  H9  1  0.22055047  0.41621527  0.63985818  1  0.131314  0.000614  0.99846  0.0  0.135883  0.000724  1.069821  0.0  0.1411  0.000509  1.065649  0.0  0.095471  0.132186  0.000866  1.073096  0.0
H  H10  1  0.32293086  0.94888772  0.90823138  1  0.095602  0.000259  0.968077  0.0  0.105236  0.000451  1.030532  0.0  0.108008  0.000325  1.028194  0.0  0.106863  0.103238  0.000566  1.032179  0.0
H  H11  1  0.67809328  0.55166283  0.59119846  1  0.095552  0.000237  0.967033  0.0  0.105275  0.000427  1.029086  0.0  0.108027  0.000309  1.026829  0.0  0.106128  0.103011  0.000557  1.031362  0.0
H  H12  1  0.67708461  0.05111348  0.09177571  1  0.095562  0.000261  0.968042  0.0  0.105208  0.000451  1.030471  0.0  0.107978  0.000325  1.028137  0.0  0.106813  0.103198  0.000566  1.03214  0.0
H  H13  1  0.32193294  0.44833650  0.40879624  1  0.09559  0.00024  0.966973  0.0  0.105323  0.000427  1.028986  0.0  0.108054  0.000308  1.026782  0.0  0.106152  0.103056  0.000557  1.031265  0.0
C  C14  1  0.52884159  0.66813601  0.00199017  1  0.030741  -0.017076  3.627902  -0.013  -0.001114  -0.005018  3.909554  -0.004  0.014878  -0.006092  3.917052  -0.004  0.035848  -0.012259  -0.004761  3.905169  -0.004
C  C15  1  0.70398241  0.83189817  0.49755024  1  0.031597  -0.017629  3.62666  -0.013  -0.000222  -0.005354  3.908018  -0.004  0.015685  -0.006359  3.915521  -0.004  0.035588  -0.011053  -0.004757  3.90375  -0.004
C  C16  1  0.47114343  0.33186249  0.99801130  1  0.030763  -0.017114  3.627857  -0.013  -0.001099  -0.005018  3.909521  -0.004  0.014894  -0.006094  3.917021  -0.004  0.035903  -0.012251  -0.004762  3.905146  -0.004
C  C17  1  0.29601854  0.16810477  0.50244882  1  0.031505  -0.017649  3.626719  -0.013  -0.000366  -0.005355  3.908103  -0.004  0.015535  -0.006359  3.915609  -0.004  0.03555  -0.011201  -0.004758  3.903844  -0.004
C  C18  1  0.30956128  0.84954000  0.08313673  1  -0.229811  0.00586  3.700511  0.007  -0.242274  0.002661  3.974779  0.003  -0.247884  0.002315  3.992903  0.003  -0.110598  -0.23829  0.003146  3.962494  0.004
C  C19  1  0.74825884  0.65061285  0.41630121  1  -0.230388  0.005981  3.699428  0.007  -0.243096  0.002704  3.973374  0.003  -0.248808  0.002369  3.991562  0.003  -0.110825  -0.239314  0.003156  3.96174  0.004
C  C20  1  0.69043502  0.15045403  0.91686681  1  -0.229816  0.005895  3.700367  0.007  -0.242297  0.002661  3.974645  0.003  -0.247908  0.002316  3.992771  0.003  -0.110657  -0.238313  0.003146  3.962362  0.004
C  C21  1  0.25175229  0.34939007  0.58369574  1  -0.230375  0.006018  3.699371  0.007  -0.243103  0.002703  3.973366  0.003  -0.24881  0.00237  3.99157  0.003  -0.110784  -0.239318  0.003156  3.961725  0.004
C  C22  1  0.36521330  0.86509817  0.96587491  1  0.08283  -0.004127  3.717461  -0.003  0.055405  -0.000698  3.969625  0.0  0.061483  -0.001575  3.99076  -0.001  0.001666  0.05133  -8.6e-05  3.955369  0.0
C  C23  1  0.69763226  0.63523665  0.53358158  1  0.083809  -0.004282  3.714826  -0.003  0.056948  -0.000799  3.966287  0.0  0.063034  -0.001671  3.987371  -0.001  0.003298  0.052942  -9.6e-05  3.952561  0.0
C  C24  1  0.63479048  0.13490034  0.03412929  1  0.082885  -0.004179  3.717278  -0.003  0.055445  -0.000698  3.969461  0.0  0.061521  -0.001576  3.9906  -0.001  0.00171  0.051373  -8.6e-05  3.95519  0.0
C  C25  1  0.30238302  0.36476448  0.46641495  1  0.083757  -0.004336  3.71481  -0.003  0.056895  -0.000799  3.966261  0.0  0.062976  -0.001672  3.987336  -0.001  0.003229  0.052892  -9.6e-05  3.952538  0.0
S  S26  1  0.41635218  0.70153100  0.13760051  1  0.163575  0.00535  2.77334  0.005  0.174433  0.00569  3.127944  0.004  0.175161  0.003663  3.130973  0.003  0.093557  0.172769  0.007245  3.127162  0.005
S  S27  1  0.76489597  0.79835602  0.36192864  1  0.162268  0.005467  2.775387  0.005  0.172974  0.005838  3.13048  0.004  0.173811  0.003776  3.133426  0.003  0.093447  0.172082  0.007264  3.129223  0.005
S  S28  1  0.58362669  0.29846393  0.86240112  1  0.163611  0.005351  2.773167  0.005  0.174476  0.00569  3.127786  0.004  0.175199  0.003663  3.130815  0.003  0.093537  0.172813  0.007246  3.126999  0.005
S  S29  1  0.23509694  0.20164781  0.63806988  1  0.162305  0.005465  2.775333  0.005  0.173024  0.005838  3.130433  0.004  0.173864  0.003776  3.13338  0.003  0.093492  0.172137  0.007263  3.129178  0.005
Br  Br30  1  0.14230125  0.59041553  0.78268420  1  -0.403193  0.17334  1.211054  0.204  -0.435915  0.120859  1.548044  0.14  -0.490167  0.085257  1.526112  0.103  -0.19534  -0.397692  0.149631  1.563239  0.167
Br  Br31  1  0.01361087  0.90972884  0.71700885  1  -0.402547  0.173  1.212586  0.204  -0.435284  0.120514  1.550203  0.139  -0.489722  0.085187  1.528654  0.103  -0.194929  -0.397269  0.149653  1.565676  0.167
Br  Br32  1  0.85770010  0.40958024  0.21731056  1  -0.403164  0.173346  1.211119  0.204  -0.435881  0.120865  1.548096  0.14  -0.490145  0.085264  1.526204  0.103  -0.195317  -0.397651  0.149635  1.563291  0.167
Br  Br33  1  0.98638411  0.09027234  0.28299454  1  -0.40254  0.173104  1.212627  0.204  -0.435262  0.120514  1.550249  0.139  -0.489692  0.085191  1.528684  0.103  -0.194924  -0.397238  0.149655  1.56572  0.167
N  N34  1  0.48792584  0.76142666  0.92035054  1  -0.254726  0.042338  3.381089  0.066  -0.205105  0.027331  3.653211  0.044  -0.238962  0.022232  3.679656  0.038  -0.346353  -0.182536  0.031702  3.635695  0.048
N  N35  1  0.67087716  0.73883538  0.57915319  1  -0.255889  0.042484  3.383087  0.067  -0.207039  0.027345  3.656425  0.044  -0.240943  0.022246  3.682822  0.038  -0.347269  -0.184462  0.031681  3.638713  0.048
N  N36  1  0.51207337  0.23857451  0.07965131  1  -0.254796  0.042353  3.381142  0.066  -0.205151  0.027332  3.65325  0.044  -0.239001  0.022234  3.679687  0.038  -0.346393  -0.182582  0.031704  3.635736  0.048
N  N37  1  0.32913428  0.26116487  0.42084502  1  -0.255838  0.042495  3.383172  0.067  -0.20693  0.027345  3.656442  0.044  -0.240814  0.022246  3.682817  0.038  -0.34726  -0.184352  0.031681  3.638733  0.048
