# generated using pymatgen
data_CuH4C4BrN2
_symmetry_space_group_name_H-M   'P 1'
_cell_length_a   3.87553640
_cell_length_b   6.40587686
_cell_length_c   11.70323378
_cell_angle_alpha   89.99847293
_cell_angle_beta   99.12901423
_cell_angle_gamma   90.00380744
_symmetry_Int_Tables_number   1
_chemical_formula_structural   CuH4C4BrN2
_chemical_formula_sum   'Cu2 H8 C8 Br2 N4'
_cell_volume   286.86673986
_cell_formula_units_Z   2
loop_
 _symmetry_equiv_pos_site_id
 _symmetry_equiv_pos_as_xyz
  1  'x, y, z'
loop_
 _atom_site_type_symbol
 _atom_site_label
 _atom_site_symmetry_multiplicity
 _atom_site_fract_x
 _atom_site_fract_y
 _atom_site_fract_z
 _atom_site_occupancy
 _atom_site_hle17_bader_spin_density
 _atom_site_hle17_ddec_charge
 _atom_site_hle17_ddec_spin_density
 _atom_site_hle17_ddec_sum_bond_order
 _atom_site_hle17_magmom
 _atom_site_hse06_10hf_bader_spin_density
 _atom_site_hse06_10hf_ddec_charge
 _atom_site_hse06_10hf_ddec_spin_density
 _atom_site_hse06_10hf_ddec_sum_bond_order
 _atom_site_hse06_10hf_magmom
 _atom_site_hse06_bader_spin_density
 _atom_site_hse06_ddec_charge
 _atom_site_hse06_ddec_spin_density
 _atom_site_hse06_ddec_sum_bond_order
 _atom_site_hse06_magmom
 _atom_site_pbe_bader_spin_density
 _atom_site_pbe_cm5_charge
 _atom_site_pbe_ddec_charge
 _atom_site_pbe_ddec_spin_density
 _atom_site_pbe_ddec_sum_bond_order
 _atom_site_pbe_magmom
Cu  Cu0  1  0.99996308  0.26632260  0.24999596  1  0  0.409135  0  2.0224  0  0  0.299138  0  2.523308  0  0  0.290763  0  2.48207  0  0  0.421038  0.309511  0  2.547361  0
Cu  Cu1  1  0.00000680  0.73366523  0.75000900  1  0  0.409062  0  2.022137  0  0  0.299082  0  2.523021  0  0  0.290711  0  2.48177  0  0  0.420938  0.309434  0  2.54721  0
H  H2  1  0.76172475  0.35094066  0.47425949  1  0  0.088922  0  0.952247  0  0  0.093832  0  1.021806  0  0  0.097757  0  1.018653  0  0  0.10806  0.090755  0  1.024722  0
H  H3  1  0.23828832  0.35096941  0.02572931  1  0  0.088835  0  0.952379  0  0  0.093806  0  1.021795  0  0  0.097734  0  1.018634  0  0  0.108087  0.090726  0  1.024713  0
H  H4  1  0.23833673  0.64904873  0.52575232  1  0  0.08881  0  0.952345  0  0  0.093873  0  1.021707  0  0  0.097804  0  1.018541  0  0  0.108063  0.090793  0  1.024632  0
H  H5  1  0.76167561  0.64905276  0.97426170  1  0  0.088963  0  0.952298  0  0  0.0939  0  1.021818  0  0  0.097829  0  1.018656  0  0  0.108082  0.09082  0  1.024738  0
H  H6  1  0.24052142  0.84267251  0.34081514  1  0  0.089829  0  0.975431  0  0  0.096321  0  1.04327  0  0  0.099814  0  1.041418  0  0  0.100811  0.093618  0  1.045341  0
H  H7  1  0.75947892  0.84268450  0.15918779  1  0  0.08986  0  0.975456  0  0  0.096342  0  1.043299  0  0  0.09985  0  1.041435  0  0  0.100825  0.093634  0  1.045376  0
H  H8  1  0.75953923  0.15728097  0.65918125  1  0  0.089844  0  0.975722  0  0  0.096343  0  1.043502  0  0  0.099864  0  1.041626  0  0  0.100894  0.093617  0  1.045594  0
H  H9  1  0.24048794  0.15733299  0.84080934  1  0  0.089763  0  0.975739  0  0  0.096339  0  1.043464  0  0  0.099835  0  1.04161  0  0  0.100851  0.093619  0  1.045531  0
C  C10  1  0.87075741  0.19409909  0.48623704  1  0  0.076124  0  3.669254  0  0  0.048504  0  3.9211  0  0  0.052155  0  3.932675  0  0  0.037738  0.045826  0  3.914497  0
C  C11  1  0.12924205  0.19413027  0.01375666  1  0  0.076081  0  3.669479  0  0  0.048482  0  3.921339  0  0  0.052142  0  3.932898  0  0  0.037731  0.045787  0  3.914728  0
C  C12  1  0.12927070  0.80588874  0.51378432  1  0  0.076261  0  3.669504  0  0  0.048618  0  3.921336  0  0  0.052278  0  3.932892  0  0  0.037895  0.045926  0  3.914754  0
C  C13  1  0.87072907  0.80589346  0.98622272  1  0  0.07609  0  3.669559  0  0  0.04847  0  3.921335  0  0  0.05213  0  3.932895  0  0  0.037816  0.045784  0  3.914744  0
C  C14  1  0.13196060  0.91490220  0.41164672  1  0  0.066855  0  3.668551  0  0  0.038138  0  3.921926  0  0  0.040798  0  3.935104  0  0  0.034204  0.03557  0  3.914544  0
C  C15  1  0.86800502  0.91491591  0.08834506  1  0  0.066782  0  3.668886  0  0  0.038039  0  3.922316  0  0  0.040685  0  3.935488  0  0  0.034191  0.035455  0  3.91493  0
C  C16  1  0.86805100  0.08507939  0.58835848  1  0  0.066723  0  3.669518  0  0  0.038043  0  3.922962  0  0  0.040675  0  3.936121  0  0  0.0341  0.035478  0  3.915545  0
C  C17  1  0.13194818  0.08510938  0.91164032  1  0  0.067  0  3.669344  0  0  0.038215  0  3.922615  0  0  0.040865  0  3.935793  0  0  0.034245  0.035663  0  3.915192  0
Br  Br18  1  0.50002957  0.51030715  0.25002474  1  0  -0.549433  0  1.320548  0  0  -0.482787  0  1.717684  0  0  -0.502762  0  1.687864  0  0  -0.268305  -0.468551  0  1.737523  0
Br  Br19  1  0.49999093  0.48967132  0.75000054  1  0  -0.549402  0  1.320483  0  0  -0.482798  0  1.717687  0  0  -0.502774  0  1.687865  0  0  -0.268313  -0.46858  0  1.73758  0
N  N20  1  0.00316858  0.11112086  0.39613682  1  0  -0.251488  0  3.362929  0  0  -0.184882  0  3.66349  0  0  -0.184443  0  3.66374  0  0  -0.357098  -0.186149  0  3.663373  0
N  N21  1  0.99682165  0.11114059  0.10384731  1  0  -0.251481  0  3.363281  0  0  -0.184923  0  3.663886  0  0  -0.184484  0  3.66414  0  0  -0.357202  -0.186155  0  3.66373  0
N  N22  1  0.99685485  0.88887321  0.60384586  1  0  -0.251495  0  3.363872  0  0  -0.185094  0  3.664675  0  0  -0.184661  0  3.664934  0  0  -0.357325  -0.186325  0  3.664573  0
N  N23  1  0.00315049  0.88890032  0.89615092  1  0  -0.251638  0  3.363694  0  0  -0.185004  0  3.664207  0  0  -0.184565  0  3.664454  0  0  -0.357325  -0.186258  0  3.664119  0
