# generated using pymatgen
data_CuH4C5SN3
_symmetry_space_group_name_H-M   'P 1'
_cell_length_a   3.70567738
_cell_length_b   8.27582847
_cell_length_c   10.53079184
_cell_angle_alpha   89.99831978
_cell_angle_beta   90.00172460
_cell_angle_gamma   96.76179796
_symmetry_Int_Tables_number   1
_chemical_formula_structural   CuH4C5SN3
_chemical_formula_sum   'Cu2 H8 C10 S2 N6'
_cell_volume   320.70719891
_cell_formula_units_Z   2
loop_
 _symmetry_equiv_pos_site_id
 _symmetry_equiv_pos_as_xyz
  1  'x, y, z'
loop_
 _atom_site_type_symbol
 _atom_site_label
 _atom_site_symmetry_multiplicity
 _atom_site_fract_x
 _atom_site_fract_y
 _atom_site_fract_z
 _atom_site_occupancy
 _atom_site_pbe_bader_spin_density
 _atom_site_pbe_cm5_charge
 _atom_site_pbe_ddec_charge
 _atom_site_pbe_ddec_spin_density
 _atom_site_pbe_ddec_sum_bond_order
 _atom_site_pbe_magmom
Cu  Cu0  1  0.78942036  0.90798706  0.02347685  1  0  0.498939  0.346264  0  2.732511  0
Cu  Cu1  1  0.21052792  0.09203316  0.52346487  1  0  0.498993  0.346389  0  2.732487  0
H  H2  1  0.61294350  0.85218522  0.29503172  1  0  0.113767  0.09768  0  1.028217  0
H  H3  1  0.38707024  0.14780194  0.79503820  1  0  0.113796  0.097637  0  1.028161  0
H  H4  1  0.61918399  0.62160804  0.45012531  1  0  0.104594  0.108329  0  1.039383  0
H  H5  1  0.38087189  0.37837171  0.95012736  1  0  0.10458  0.108338  0  1.039436  0
H  H6  1  0.79515526  0.35436133  0.36580417  1  0  0.111269  0.114459  0  1.029772  0
H  H7  1  0.20490794  0.64562487  0.86580971  1  0  0.111237  0.114493  0  1.029897  0
H  H8  1  0.93654859  0.34293956  0.13094420  1  0  0.104837  0.08116  0  1.042107  0
H  H9  1  0.06346424  0.65707247  0.63095761  1  0  0.104861  0.081128  0  1.042142  0
C  C10  1  0.28080503  0.08591515  0.23359344  1  0  0.14339  0.261694  0  4.213939  0
C  C11  1  0.71915882  0.91408966  0.73360253  1  0  0.143393  0.261666  0  4.214507  0
C  C12  1  0.68130148  0.73343952  0.26548199  1  0  0.04321  0.052022  0  3.898674  0
C  C13  1  0.31869506  0.26655463  0.76547652  1  0  0.043207  0.052162  0  3.898598  0
C  C14  1  0.68689994  0.60518443  0.35084650  1  0  -0.064723  -0.070475  0  3.93376  0
C  C15  1  0.31312298  0.39480821  0.85085415  1  0  -0.064657  -0.070471  0  3.933409  0
C  C16  1  0.78088208  0.45925342  0.30463559  1  0  -0.060506  -0.064106  0  3.911821  0
C  C17  1  0.21914956  0.54074807  0.80464086  1  0  -0.060532  -0.064209  0  3.912072  0
C  C18  1  0.86068608  0.45339398  0.17499717  1  0  0.044303  0.052362  0  3.947486  0
C  C19  1  0.13932896  0.54661052  0.67500438  1  0  0.044351  0.052528  0  3.947537  0
S  S20  1  0.32588710  0.07327182  0.07892927  1  0  -0.172272  -0.313624  0  3.209942  0
S  S21  1  0.67408415  0.92674421  0.57894712  1  0  -0.172287  -0.313663  0  3.210076  0
N  N22  1  0.24646080  0.09670819  0.34488962  1  0  -0.431107  -0.427589  0  3.458767  0
N  N23  1  0.75349350  0.90328197  0.84488979  1  0  -0.431008  -0.427441  0  3.458749  0
N  N24  1  0.75983801  0.71963330  0.14142633  1  0  -0.240314  -0.096998  0  3.653562  0
N  N25  1  0.24014811  0.28036491  0.64143402  1  0  -0.24044  -0.097127  0  3.653819  0
N  N26  1  0.85086051  0.57862022  0.09533025  1  0  -0.195455  -0.141272  0  3.245341  0
N  N27  1  0.14912623  0.42138681  0.59534045  1  0  -0.195426  -0.141337  0  3.24515  0
