# generated using pymatgen
data_SrH6C4O7
_symmetry_space_group_name_H-M   'P 1'
_cell_length_a   6.61758112
_cell_length_b   7.10249132
_cell_length_c   7.87408753
_cell_angle_alpha   90.00015696
_cell_angle_beta   98.27767900
_cell_angle_gamma   89.99986324
_symmetry_Int_Tables_number   1
_chemical_formula_structural   SrH6C4O7
_chemical_formula_sum   'Sr2 H12 C8 O14'
_cell_volume   366.23680728
_cell_formula_units_Z   2
loop_
 _symmetry_equiv_pos_site_id
 _symmetry_equiv_pos_as_xyz
  1  'x, y, z'
loop_
 _atom_site_type_symbol
 _atom_site_label
 _atom_site_symmetry_multiplicity
 _atom_site_fract_x
 _atom_site_fract_y
 _atom_site_fract_z
 _atom_site_occupancy
 _atom_site_hle17_bader_spin_density
 _atom_site_hle17_ddec_charge
 _atom_site_hle17_ddec_spin_density
 _atom_site_hle17_ddec_sum_bond_order
 _atom_site_hle17_magmom
 _atom_site_hse06_10hf_bader_spin_density
 _atom_site_hse06_10hf_ddec_charge
 _atom_site_hse06_10hf_ddec_spin_density
 _atom_site_hse06_10hf_ddec_sum_bond_order
 _atom_site_hse06_10hf_magmom
 _atom_site_hse06_bader_spin_density
 _atom_site_hse06_ddec_charge
 _atom_site_hse06_ddec_spin_density
 _atom_site_hse06_ddec_sum_bond_order
 _atom_site_hse06_magmom
 _atom_site_pbe_bader_spin_density
 _atom_site_pbe_cm5_charge
 _atom_site_pbe_ddec_charge
 _atom_site_pbe_ddec_spin_density
 _atom_site_pbe_ddec_sum_bond_order
 _atom_site_pbe_magmom
Sr  Sr0  1  0.10068601  0.24891553  0.10868819  1  0  1.599288  0  1.145866  0  0  1.453074  0  1.522044  0  0  1.493408  0  1.475327  0  0  0.982144  1.423326  0  1.555212  0
Sr  Sr1  1  0.89931223  0.74891502  0.89131199  1  0  1.599248  0  1.145931  0  0  1.453079  0  1.52203  0  0  1.493411  0  1.475316  0  0  0.982126  1.423327  0  1.555195  0
H  H2  1  0.43767838  0.76992011  0.40504700  1  0  0.072438  0  0.927268  0  0  0.078228  0  0.996087  0  0  0.080846  0  0.993352  0  0  0.118941  0.076205  0  0.998366  0
H  H3  1  0.56232288  0.26992246  0.59495360  1  0  0.07244  0  0.927192  0  0  0.078214  0  0.996047  0  0  0.080831  0  0.993312  0  0  0.118923  0.076191  0  0.99832  0
H  H4  1  0.22127001  0.99076981  0.53345440  1  0  0.084883  0  0.906351  0  0  0.091715  0  0.967303  0  0  0.094262  0  0.96484  0  0  0.127652  0.089774  0  0.969341  0
H  H5  1  0.77872771  0.49076988  0.46654378  1  0  0.08484  0  0.906326  0  0  0.091633  0  0.967301  0  0  0.094178  0  0.96484  0  0  0.127633  0.089698  0  0.969334  0
H  H6  1  0.37380190  0.45345517  0.40909458  1  0  0.367869  0  0.941628  0  0  0.34261  0  1.013668  0  0  0.353469  0  1.002353  0  0  0.300429  0.334987  0  1.021578  0
H  H7  1  0.62620048  0.95345718  0.59090535  1  0  0.367839  0  0.941692  0  0  0.342534  0  1.013769  0  0  0.353388  0  1.002472  0  0  0.300407  0.334918  0  1.021676  0
H  H8  1  0.91197072  0.89834655  0.54088410  1  0  0.372233  0  0.920227  0  0  0.346762  0  0.992776  0  0  0.358029  0  0.979933  0  0  0.30515  0.338791  0  1.001829  0
H  H9  1  0.08802873  0.39834673  0.45911533  1  0  0.372158  0  0.920192  0  0  0.346679  0  0.99277  0  0  0.357945  0  0.979929  0  0  0.305116  0.338711  0  1.001819  0
H  H10  1  0.50203898  0.28041940  0.96283172  1  0  0.419531  0  0.881659  0  0  0.38745  0  0.947435  0  0  0.398881  0  0.930658  0  0  0.298825  0.379345  0  0.959312  0
H  H11  1  0.49796072  0.78042003  0.03716745  1  0  0.419521  0  0.88167  0  0  0.38744  0  0.947447  0  0  0.398872  0  0.930669  0  0  0.298818  0.379335  0  0.959327  0
H  H12  1  0.36038803  0.41217031  0.83526306  1  0  0.426018  0  0.840541  0  0  0.400442  0  0.907004  0  0  0.40931  0  0.893917  0  0  0.317628  0.394118  0  0.916341  0
H  H13  1  0.63961139  0.91217101  0.16473768  1  0  0.426019  0  0.840518  0  0  0.400444  0  0.906997  0  0  0.409313  0  0.89391  0  0  0.317632  0.394122  0  0.91633  0
C  C14  1  0.15001355  0.74323519  0.24967364  1  0  0.692115  0  3.835214  0  0  0.640603  0  4.136353  0  0  0.674806  0  4.126646  0  0  0.227788  0.617216  0  4.142323  0
C  C15  1  0.84998777  0.24323174  0.75032690  1  0  0.692025  0  3.835256  0  0  0.64055  0  4.136353  0  0  0.674756  0  4.126642  0  0  0.227823  0.617159  0  4.142326  0
C  C16  1  0.28455460  0.72045034  0.42433273  1  0  0.061525  0  3.626938  0  0  0.0295  0  3.885166  0  0  0.031169  0  3.89089  0  0  -0.001664  0.028305  0  3.881354  0
C  C17  1  0.71544981  0.22044807  0.57566560  1  0  0.061621  0  3.62677  0  0  0.029553  0  3.885002  0  0  0.031224  0  3.89072  0  0  -0.001642  0.028366  0  3.881187  0
C  C18  1  0.21036648  0.84029591  0.56494624  1  0  0.072215  0  3.631482  0  0  0.04692  0  3.885653  0  0  0.048929  0  3.891666  0  0  0.007224  0.045451  0  3.881568  0
C  C19  1  0.78963462  0.34029445  0.43505325  1  0  0.072206  0  3.631393  0  0  0.047016  0  3.885492  0  0  0.049027  0  3.891503  0  0  0.007201  0.045535  0  3.881418  0
C  C20  1  0.35656530  0.80118155  0.73170613  1  0  0.679915  0  3.82355  0  0  0.623606  0  4.131785  0  0  0.657357  0  4.12207  0  0  0.235508  0.600578  0  4.137782  0
C  C21  1  0.64343589  0.30117851  0.26829327  1  0  0.680081  0  3.823238  0  0  0.623679  0  4.131584  0  0  0.657428  0  4.121867  0  0  0.235572  0.600644  0  4.137592  0
O  O22  1  0.11865467  0.90874185  0.19009953  1  0  -0.736331  0  1.951894  0  0  -0.675311  0  2.2029  0  0  -0.702685  0  2.191342  0  0  -0.392477  -0.65592  0  2.21031  0
O  O23  1  0.88134780  0.40873991  0.80990157  1  0  -0.73635  0  1.951887  0  0  -0.67533  0  2.202859  0  0  -0.702705  0  2.191303  0  0  -0.392506  -0.655944  0  2.210277  0
O  O24  1  0.08175481  0.59653169  0.16890452  1  0  -0.739149  0  2.030464  0  0  -0.672707  0  2.282807  0  0  -0.700443  0  2.271877  0  0  -0.413319  -0.653146  0  2.289859  0
O  O25  1  0.91824376  0.09652974  0.83109786  1  0  -0.739067  0  2.030583  0  0  -0.672644  0  2.282913  0  0  -0.70038  0  2.27198  0  0  -0.413317  -0.653076  0  2.289955  0
O  O26  1  0.29605200  0.53154065  0.48608921  1  0  -0.556195  0  2.131461  0  0  -0.503561  0  2.351243  0  0  -0.520089  0  2.339517  0  0  -0.385014  -0.491834  0  2.359234  0
O  O27  1  0.70394672  0.03154103  0.51390795  1  0  -0.55621  0  2.131515  0  0  -0.503527  0  2.351385  0  0  -0.520057  0  2.33966  0  0  -0.384998  -0.491812  0  2.359376  0
O  O28  1  0.00596374  0.79189202  0.58290420  1  0  -0.592259  0  2.116965  0  0  -0.543393  0  2.351081  0  0  -0.559928  0  2.338573  0  0  -0.429609  -0.531511  0  2.359608  0
O  O29  1  0.99403594  0.29189147  0.41709627  1  0  -0.592196  0  2.116961  0  0  -0.543326  0  2.351032  0  0  -0.559862  0  2.338529  0  0  -0.429566  -0.531446  0  2.359561  0
O  O30  1  0.54646393  0.82306801  0.72488005  1  0  -0.697044  0  2.065001  0  0  -0.636525  0  2.309691  0  0  -0.663985  0  2.298878  0  0  -0.364919  -0.617194  0  2.316662  0
O  O31  1  0.45353721  0.32306542  0.27512194  1  0  -0.697121  0  2.064872  0  0  -0.636575  0  2.309564  0  0  -0.664039  0  2.298746  0  0  -0.36492  -0.617235  0  2.316536  0
O  O32  1  0.28639745  0.74623913  0.86459904  1  0  -0.675293  0  1.991581  0  0  -0.610318  0  2.221774  0  0  -0.635855  0  2.210456  0  0  -0.329057  -0.592422  0  2.229183  0
O  O33  1  0.71360538  0.24623554  0.13540297  1  0  -0.675386  0  1.991568  0  0  -0.610373  0  2.221806  0  0  -0.635909  0  2.210487  0  0  -0.329103  -0.592472  0  2.229216  0
O  O34  1  0.36781407  0.28751835  0.88787215  1  0  -0.851717  0  1.759101  0  0  -0.79907  0  1.9244  0  0  -0.817448  0  1.893929  0  0  -0.605211  -0.786044  0  1.945803  0
O  O35  1  0.63218715  0.78751891  0.11212722  1  0  -0.851712  0  1.759102  0  0  -0.799071  0  1.924413  0  0  -0.817452  0  1.893941  0  0  -0.605216  -0.786045  0  1.945813  0
