# generated using pymatgen
data_CuH12C12(N4O3)2
_symmetry_space_group_name_H-M   'P 1'
_cell_length_a   6.77583751
_cell_length_b   7.35827816
_cell_length_c   9.24221439
_cell_angle_alpha   94.09091511
_cell_angle_beta   111.40070675
_cell_angle_gamma   112.27270772
_symmetry_Int_Tables_number   1
_chemical_formula_structural   CuH12C12(N4O3)2
_chemical_formula_sum   'Cu1 H12 C12 N8 O6'
_cell_volume   385.08966168
_cell_formula_units_Z   1
loop_
 _symmetry_equiv_pos_site_id
 _symmetry_equiv_pos_as_xyz
  1  'x, y, z'
loop_
 _atom_site_type_symbol
 _atom_site_label
 _atom_site_symmetry_multiplicity
 _atom_site_fract_x
 _atom_site_fract_y
 _atom_site_fract_z
 _atom_site_occupancy
 _atom_site_hle17_ddec_charge
 _atom_site_hle17_ddec_spin_density
 _atom_site_hle17_ddec_sum_bond_order
 _atom_site_hle17_magmom
 _atom_site_hse06_10hf_ddec_charge
 _atom_site_hse06_10hf_ddec_spin_density
 _atom_site_hse06_10hf_ddec_sum_bond_order
 _atom_site_hse06_10hf_magmom
 _atom_site_hse06_ddec_charge
 _atom_site_hse06_ddec_spin_density
 _atom_site_hse06_ddec_sum_bond_order
 _atom_site_hse06_magmom
 _atom_site_pbe_cm5_charge
 _atom_site_pbe_ddec_charge
 _atom_site_pbe_ddec_spin_density
 _atom_site_pbe_ddec_sum_bond_order
 _atom_site_pbe_magmom
Cu  Cu0  1  0.00000036  0.49999876  0.50000063  1  0.737781  0.671568  1.858569  0.493  0.687527  0.749911  2.23026  0.594  0.766698  0.818822  2.179633  0.679  0.774343  0.640943  0.698024  2.265099  0.535
H  H1  1  0.88171339  0.70757411  0.72003807  1  0.09458  0.001593  0.97023  0.002  0.0951  0.001344  1.045284  0.002  0.097385  0.000952  1.042755  0.002  0.126257  0.093283  0.001669  1.047478  0.003
H  H2  1  0.11829046  0.29242416  0.27996054  1  0.094632  0.001593  0.970213  0.002  0.095151  0.001344  1.045253  0.002  0.097435  0.000952  1.042725  0.002  0.126274  0.093332  0.00167  1.047446  0.003
H  H3  1  0.48375949  0.28423492  0.27905024  1  0.100198  0.001469  0.985234  0.002  0.095408  0.001209  1.066541  0.002  0.097918  0.000842  1.064385  0.002  0.125024  0.093563  0.001564  1.068201  0.002
H  H4  1  0.51624354  0.71576486  0.72094823  1  0.100177  0.001469  0.985226  0.002  0.095377  0.001209  1.066555  0.002  0.097887  0.000842  1.064399  0.002  0.125017  0.09353  0.001564  1.068215  0.002
H  H5  1  0.74475435  0.28655743  0.14574393  1  0.104591  0.001778  0.977586  0.003  0.101525  0.00126  1.055039  0.002  0.104831  0.00081  1.051  0.002  0.120047  0.098784  0.001693  1.058457  0.003
H  H6  1  0.25525185  0.71344235  0.85425539  1  0.10458  0.001778  0.97762  0.003  0.101508  0.00126  1.055079  0.002  0.104818  0.00081  1.051035  0.002  0.120023  0.098767  0.001693  1.058501  0.003
H  H7  1  0.66843115  0.39191597  0.88573025  1  0.092711  0.00122  0.971604  0.002  0.091323  0.000747  1.045925  0.001  0.094123  0.000458  1.044519  0.001  0.111805  0.089301  0.00107  1.047124  0.001
H  H8  1  0.33156947  0.60808532  0.11426874  1  0.092733  0.00122  0.971572  0.002  0.09135  0.000747  1.045887  0.001  0.094144  0.000458  1.044501  0.001  0.111819  0.089332  0.00107  1.047092  0.001
H  H9  1  0.07874563  0.89144670  0.39706747  1  0.109861  0.001719  0.967843  0.003  0.10635  0.001094  1.045447  0.002  0.109365  0.000698  1.042043  0.001  0.120886  0.103962  0.001494  1.048259  0.002
H  H10  1  0.92124712  0.10855157  0.60293249  1  0.109864  0.001718  0.967842  0.003  0.106357  0.001094  1.04546  0.002  0.10937  0.000698  1.042056  0.001  0.12089  0.103964  0.001494  1.048273  0.002
H  H11  1  0.99518291  0.99570412  0.13353696  1  0.089333  0.001301  0.944114  0.002  0.094881  0.000836  1.01004  0.001  0.096665  0.000527  1.009186  0.001  0.120127  0.093549  0.001179  1.011036  0.001
H  H12  1  0.00480744  0.00429566  0.86646461  1  0.089333  0.001301  0.944121  0.002  0.094859  0.000836  1.010068  0.001  0.096647  0.000527  1.009206  0.001  0.120091  0.093523  0.001179  1.011067  0.001
C  C13  1  0.71072537  0.61471543  0.62170499  1  0.114766  0.000232  3.608567  0.002  0.086102  0.002038  3.862745  0.003  0.09184  0.000427  3.87701  0.001  0.069569  0.082164  0.003523  3.85425  0.004
C  C14  1  0.28927531  0.38528283  0.37829385  1  0.114633  0.000217  3.608661  0.002  0.08596  0.002038  3.862833  0.003  0.091695  0.000429  3.877101  0.001  0.069513  0.082026  0.003523  3.854335  0.004
C  C15  1  0.49257842  0.38137478  0.37817423  1  0.105002  0.000312  3.599791  0.002  0.077553  0.002018  3.85442  0.003  0.082466  0.000477  3.870001  0.001  0.068426  0.074141  0.003564  3.844634  0.004
C  C16  1  0.50742384  0.61862349  0.62182503  1  0.105019  0.000301  3.59977  0.002  0.077544  0.002018  3.854392  0.003  0.082448  0.000478  3.869989  0.001  0.068402  0.074139  0.003564  3.844597  0.004
C  C17  1  0.80429584  0.44579768  0.14317766  1  0.06562  -0.011533  3.644033  -0.006  0.037976  -0.002009  3.904174  -0.001  0.042337  -0.004351  3.923184  -0.002  0.047822  0.035277  -9e-06  3.891875  0.001
C  C18  1  0.19570719  0.55420210  0.85682189  1  0.06557  -0.011517  3.64405  -0.006  0.037921  -0.002008  3.904183  -0.001  0.04228  -0.004353  3.923194  -0.002  0.047837  0.035221  -9e-06  3.891885  0.001
C  C19  1  0.76002095  0.50595604  0.99941971  1  0.066114  0.012118  3.69503  0.013  0.046736  0.004851  3.950948  0.006  0.046144  0.004227  3.971256  0.005  0.047366  0.04712  0.005444  3.937001  0.007
C  C20  1  0.23997732  0.49404373  0.00057857  1  0.066164  0.012107  3.695029  0.013  0.046775  0.004851  3.950964  0.006  0.04618  0.004229  3.971272  0.005  0.047367  0.047154  0.005444  3.937022  0.007
C  C21  1  0.98774457  0.78098528  0.28209281  1  0.093049  -0.013212  3.605103  -0.008  0.062107  -0.00294  3.867611  -0.001  0.067296  -0.005227  3.885479  -0.003  0.056016  0.058845  -0.000897  3.856193  0.0
C  C22  1  0.01224976  0.21901299  0.71790758  1  0.09312  -0.013193  3.605107  -0.008  0.062135  -0.002939  3.867654  -0.001  0.067328  -0.005229  3.885517  -0.003  0.056042  0.058877  -0.000897  3.856222  0.0
C  C23  1  0.93992631  0.83669789  0.13613201  1  0.099609  0.011715  3.659297  0.013  0.07548  0.004577  3.918907  0.006  0.076593  0.00401  3.935878  0.005  0.060992  0.074166  0.00519  3.907687  0.006
C  C24  1  0.06006721  0.16330190  0.86387040  1  0.099558  0.011703  3.659511  0.013  0.075453  0.004576  3.919134  0.006  0.076568  0.004011  3.936101  0.005  0.061003  0.074139  0.00519  3.907906  0.006
N  N25  1  0.70263775  0.49668190  0.50056572  1  -0.223274  0.072011  3.312966  0.092  -0.1762  0.053308  3.59595  0.073  -0.200208  0.043791  3.616623  0.064  -0.322731  -0.162772  0.058482  3.584469  0.076
N  N26  1  0.29736140  0.50331333  0.49943146  1  -0.223272  0.072018  3.313044  0.092  -0.176123  0.053308  3.595948  0.073  -0.20013  0.04379  3.616622  0.064  -0.322683  -0.162696  0.058482  3.584457  0.076
N  N27  1  0.92055146  0.58462982  0.28422411  1  -0.246456  0.090133  3.299536  0.116  -0.199585  0.061409  3.583899  0.084  -0.227712  0.050065  3.610869  0.074  -0.318805  -0.182899  0.067281  3.567255  0.087
N  N28  1  0.07944922  0.41536845  0.71577581  1  -0.246451  0.090125  3.299495  0.116  -0.199542  0.061409  3.583841  0.084  -0.227671  0.050066  3.610812  0.074  -0.318821  -0.18286  0.067284  3.567191  0.087
N  N29  1  0.82830433  0.70124758  0.99516591  1  -0.258322  -0.005946  3.070474  -0.004  -0.224876  -0.002981  3.339269  -0.002  -0.233177  -0.004965  3.356615  -0.004  -0.293186  -0.217846  0.00046  3.326892  0.001
N  N30  1  0.17169153  0.29875371  0.00483397  1  -0.258344  -0.005931  3.070665  -0.004  -0.224896  -0.00298  3.339456  -0.002  -0.233198  -0.004967  3.356805  -0.004  -0.293193  -0.217867  0.000461  3.327079  0.001
N  N31  1  0.60748824  0.98883036  0.29271327  1  0.68906  -0.00078  4.151313  -0.001  0.729558  -0.000603  4.438057  -0.001  0.75579  -0.000439  4.443461  0.0  0.09275  0.710636  -0.000618  4.433956  -0.001
N  N32  1  0.39252726  0.01118155  0.70729245  1  0.688708  -0.000782  4.150962  -0.001  0.729186  -0.000604  4.437765  -0.001  0.755445  -0.00044  4.443175  0.0  0.092664  0.710263  -0.00062  4.433653  -0.001
O  O33  1  0.81382530  0.13917778  0.35586534  1  -0.539786  -0.000563  1.82693  0.001  -0.532188  -0.000974  2.07358  0.0  -0.549908  -0.001262  2.063762  0.0  -0.222566  -0.519408  -0.000549  2.080541  0.001
O  O34  1  0.18613922  0.86080227  0.64412282  1  -0.539675  -0.00056  1.826534  0.001  -0.532115  -0.000971  2.073189  0.0  -0.549851  -0.001265  2.063381  0.0  -0.222576  -0.519337  -0.000547  2.08015  0.001
O  O35  1  0.44961413  0.99280123  0.16856460  1  -0.462197  0.001074  1.735357  0.001  -0.451144  0.000407  1.941358  0.0  -0.463159  0.000234  1.936345  0.0  -0.193937  -0.441921  0.000665  1.944652  0.001
O  O36  1  0.55040654  0.00718956  0.83145325  1  -0.462025  0.001073  1.735154  0.001  -0.450945  0.000406  1.941123  0.0  -0.462972  0.000238  1.936121  0.0  -0.193857  -0.441724  0.000664  1.94441  0.001
O  O37  1  0.56821480  0.84031163  0.35565995  1  -0.463362  -0.000423  1.744535  0.0  -0.459899  -0.000547  1.955655  0.0  -0.471957  -0.000684  1.952947  0.0  -0.203052  -0.450439  -0.00022  1.957424  0.0
O  O38  1  0.43180118  0.15971690  0.64434032  1  -0.463201  -0.000426  1.744256  0.0  -0.459687  -0.00055  1.955421  0.0  -0.471754  -0.000684  1.952719  0.0  -0.202963  -0.45023  -0.000221  1.957182  0.0
