# generated using pymatgen
data_CuH4C5BrN7
_symmetry_space_group_name_H-M   'P 1'
_cell_length_a   5.71946287
_cell_length_b   8.42096751
_cell_length_c   10.20174322
_cell_angle_alpha   81.13346541
_cell_angle_beta   74.46343375
_cell_angle_gamma   87.60480619
_symmetry_Int_Tables_number   1
_chemical_formula_structural   CuH4C5BrN7
_chemical_formula_sum   'Cu2 H8 C10 Br2 N14'
_cell_volume   467.73952271
_cell_formula_units_Z   2
loop_
 _symmetry_equiv_pos_site_id
 _symmetry_equiv_pos_as_xyz
  1  'x, y, z'
loop_
 _atom_site_type_symbol
 _atom_site_label
 _atom_site_symmetry_multiplicity
 _atom_site_fract_x
 _atom_site_fract_y
 _atom_site_fract_z
 _atom_site_occupancy
 _atom_site_hle17_ddec_charge
 _atom_site_hle17_ddec_spin_density
 _atom_site_hle17_ddec_sum_bond_order
 _atom_site_hle17_magmom
 _atom_site_hse06_10hf_ddec_charge
 _atom_site_hse06_10hf_ddec_spin_density
 _atom_site_hse06_10hf_ddec_sum_bond_order
 _atom_site_hse06_10hf_magmom
 _atom_site_hse06_ddec_charge
 _atom_site_hse06_ddec_spin_density
 _atom_site_hse06_ddec_sum_bond_order
 _atom_site_hse06_magmom
 _atom_site_pbe_cm5_charge
 _atom_site_pbe_ddec_charge
 _atom_site_pbe_ddec_spin_density
 _atom_site_pbe_ddec_sum_bond_order
 _atom_site_pbe_magmom
Cu  Cu0  1  0.79132384  0.47177753  0.43116891  1  0.742826  -0.498877  2.023647  -0.337  0.760813  -0.695695  2.436425  -0.529  0.861116  -0.81666  2.358281  -0.642  0.740656  0.708425  -0.591695  2.483524  -0.444
Cu  Cu1  1  0.20868577  0.52821762  0.56882588  1  0.742963  0.498889  2.023563  0.337  0.760862  0.695698  2.436356  0.529  0.861037  0.81664  2.358212  0.642  0.740632  0.708404  0.591661  2.483474  0.444
H  H2  1  0.05570955  0.21776509  0.99843915  1  0.113455  0.000142  0.97654  0.0  0.119601  -6.4e-05  1.044016  -0.001  0.123025  -3e-05  1.042881  0.0  0.102328  0.11734  -9.9e-05  1.044737  -0.001
H  H3  1  0.94429453  0.78223724  0.00156438  1  0.113479  -0.000142  0.976516  0.0  0.119631  6.3e-05  1.043988  0.001  0.123054  3e-05  1.042858  0.0  0.102321  0.117369  9.9e-05  1.044709  0.001
H  H4  1  0.70534770  0.02231288  0.05895353  1  0.098572  -1.6e-05  0.937393  0.0  0.111758  9.2e-05  0.992866  0.0  0.114003  0.000105  0.991065  0.0  0.110653  0.109885  8.8e-05  0.9947  0.0
H  H5  1  0.29465102  0.97769430  0.94104431  1  0.098488  1.1e-05  0.937423  0.0  0.111739  -9.2e-05  0.992841  0.0  0.113987  -0.000105  0.991038  0.0  0.110656  0.109868  -8.8e-05  0.994675  0.0
H  H6  1  0.39976137  0.01386101  0.28854035  1  0.105786  -0.000119  0.980179  0.0  0.112903  -0.00014  1.046081  0.0  0.116112  -8.1e-05  1.045187  0.0  0.103586  0.110511  -0.000173  1.046921  0.0
H  H7  1  0.60023552  0.98614617  0.71145874  1  0.105718  0.00012  0.980231  0.0  0.112851  0.000139  1.046127  0.0  0.116067  8.1e-05  1.045236  0.0  0.103553  0.110458  0.000173  1.046964  0.0
H  H8  1  0.45613416  0.20025313  0.44793280  1  0.081976  -0.000869  0.968979  -0.001  0.088472  -0.000974  1.038214  -0.001  0.090619  -0.000785  1.036905  -0.001  0.115295  0.0866  -0.001033  1.039616  -0.001
H  H9  1  0.54386273  0.79974804  0.55206606  1  0.081974  0.000865  0.968948  0.001  0.088446  0.000973  1.03821  0.001  0.090593  0.000785  1.036902  0.001  0.115269  0.086595  0.001033  1.039591  0.001
C  C10  1  0.92778062  0.30960386  0.19039042  1  0.241512  0.003757  3.709602  0.004  0.239913  6.3e-05  3.983667  0.001  0.252369  0.001093  4.003519  0.002  0.108442  0.231699  -0.000738  3.971161  0.0
C  C11  1  0.07222167  0.69039848  0.80961142  1  0.241489  -0.003732  3.709741  -0.004  0.239832  -6.4e-05  3.983826  -0.001  0.252284  -0.001089  4.003678  -0.002  0.108414  0.231617  0.000738  3.971314  0.0
C  C12  1  0.91690365  0.20884760  0.09600021  1  -0.158571  -0.005397  3.735631  -0.005  -0.174423  -0.002795  3.978672  -0.003  -0.182459  -0.002833  3.998687  -0.003  -0.089568  -0.16931  -0.002513  3.964999  -0.003
C  C13  1  0.08309865  0.79115355  0.90400079  1  -0.158592  0.005368  3.735723  0.005  -0.17443  0.002798  3.978775  0.003  -0.182462  0.002826  3.998777  0.003  -0.089548  -0.169322  0.002513  3.965113  0.003
C  C14  1  0.72387714  0.10133351  0.13070356  1  0.024955  0.005592  3.691273  0.005  0.007934  0.002304  3.935374  0.002  0.013767  0.002667  3.950878  0.003  -0.059047  0.004407  0.001923  3.924753  0.002
C  C15  1  0.27612155  0.89867125  0.86929655  1  0.025114  -0.005554  3.691132  -0.005  0.008015  -0.002306  3.935267  -0.002  0.013853  -0.002662  3.950775  -0.003  -0.059005  0.004482  -0.001922  3.924655  -0.002
C  C16  1  0.55392571  0.09557401  0.25826418  1  -0.11378  -0.005881  3.718171  -0.006  -0.129588  -0.002973  3.970013  -0.003  -0.136137  -0.002908  3.988376  -0.003  -0.085699  -0.125403  -0.002817  3.95757  -0.003
C  C17  1  0.44607115  0.90442955  0.74173733  1  -0.113753  0.005848  3.71818  0.006  -0.129592  0.002969  3.970084  0.003  -0.136156  0.002906  3.988463  0.003  -0.085709  -0.125405  0.002818  3.957643  0.003
C  C18  1  0.58101586  0.19889298  0.34682216  1  0.146815  0.005163  3.668192  0.005  0.115771  0.001307  3.927537  0.002  0.125634  0.002177  3.944082  0.003  0.044237  0.109474  0.000589  3.917378  0.001
C  C19  1  0.41898100  0.80110818  0.65317867  1  0.146782  -0.00513  3.66803  -0.005  0.115748  -0.001303  3.927335  -0.002  0.125604  -0.002178  3.943883  -0.003  0.044264  0.109433  -0.000589  3.917169  -0.001
Br  Br20  1  0.17665188  0.46601464  0.14746160  1  -0.038955  0.000487  1.406445  -0.001  -0.041447  -0.0003  1.69319  -0.002  -0.047346  0.000105  1.68515  -0.001  0.080298  -0.03784  -0.000719  1.699826  -0.002
Br  Br21  1  0.82334499  0.53398652  0.85253923  1  -0.038997  -0.000489  1.406401  0.001  -0.041481  0.000299  1.693167  0.002  -0.047365  -0.0001  1.685121  0.001  0.08027  -0.037862  0.000718  1.699799  0.002
N  N22  1  0.76429866  0.30610595  0.31257322  1  -0.347396  -0.048943  3.367173  -0.058  -0.29458  -0.046624  3.648107  -0.061  -0.325705  -0.041762  3.669661  -0.057  -0.352283  -0.277433  -0.045644  3.636253  -0.057
N  N23  1  0.23570003  0.69389041  0.68742695  1  -0.347384  0.048906  3.367033  0.058  -0.294476  0.046614  3.647885  0.061  -0.325565  0.041756  3.669386  0.057  -0.352249  -0.27732  0.045636  3.636026  0.057
N  N24  1  0.03603041  0.34889413  0.51766446  1  -0.547006  0.006064  2.945103  0.007  -0.589606  -0.002249  3.338256  -0.003  -0.647546  -0.002501  3.35348  -0.003  -0.362981  -0.557053  -0.002019  3.330733  -0.002
N  N25  1  0.96397198  0.65109866  0.48232777  1  -0.547137  -0.006074  2.945252  -0.007  -0.589786  0.002248  3.338476  0.003  -0.6477  0.002512  3.353639  0.003  -0.363033  -0.557241  0.002024  3.330964  0.002
N  N26  1  0.01403119  0.21114479  0.57659969  1  0.393083  -0.002009  4.120253  -0.003  0.443952  0.00018  4.4174  0.0  0.465635  0.00055  4.45243  0.001  0.098211  0.430895  -4.6e-05  4.392508  0.0
N  N27  1  0.98595659  0.78884797  0.42340351  1  0.393212  0.00201  4.120132  0.003  0.444102  -0.000183  4.417236  0.0  0.465785  -0.000553  4.452271  -0.001  0.09832  0.431044  4.1e-05  4.392347  0.0
N  N28  1  0.99799937  0.07914585  0.63143893  1  -0.279263  0.006577  2.368725  0.007  -0.290417  -0.002263  2.587418  -0.003  -0.29934  -0.003283  2.600621  -0.004  -0.132074  -0.282292  -0.002762  2.576592  -0.003
N  N29  1  0.00198289  0.92085768  0.36857257  1  -0.279324  -0.006582  2.368501  -0.007  -0.290507  0.002271  2.587199  0.003  -0.299434  0.003286  2.600399  0.004  -0.13218  -0.28238  0.002784  2.576374  0.003
N  N30  1  0.54479477  0.62136759  0.37831312  1  -0.519127  -0.078019  2.805225  -0.09  -0.567004  -0.043304  3.176015  -0.054  -0.618346  -0.029012  3.190145  -0.039  -0.332707  -0.539967  -0.048273  3.17058  -0.058
N  N31  1  0.45521295  0.37862513  0.62168911  1  -0.519047  0.077974  2.805549  0.09  -0.566908  0.043287  3.176338  0.054  -0.618214  0.029003  3.190423  0.039  -0.332609  -0.539874  0.048262  3.170894  0.058
N  N32  1  0.54361199  0.67171124  0.26110276  1  0.38361  0.028862  4.158842  0.042  0.434895  0.004768  4.468014  0.012  0.455533  0.007895  4.505462  0.016  0.08424  0.422445  0.00153  4.444585  0.009
N  N33  1  0.45639762  0.32828633  0.73889173  1  0.38362  -0.028886  4.15904  -0.042  0.434858  -0.004774  4.468269  -0.012  0.455498  -0.007907  4.505717  -0.016  0.084218  0.42241  -0.001537  4.444841  -0.009
N  N34  1  0.53334637  0.72360241  0.14975022  1  -0.328492  -0.119574  2.375804  -0.126  -0.348889  -0.064208  2.616538  -0.072  -0.360851  -0.055834  2.628572  -0.065  -0.173541  -0.34229  -0.065853  2.609373  -0.072
N  N35  1  0.46666496  0.27639270  0.85025315  1  -0.328604  0.119657  2.375635  0.126  -0.348964  0.064239  2.616377  0.072  -0.360949  0.055868  2.628447  0.065  -0.173628  -0.342367  0.065887  2.609221  0.072
