# generated using pymatgen
data_CuH7C5N2Cl
_symmetry_space_group_name_H-M   'P 1'
_cell_length_a   6.35210052
_cell_length_b   6.58776927
_cell_length_c   8.23122262
_cell_angle_alpha   79.01056744
_cell_angle_beta   78.48728740
_cell_angle_gamma   82.57342458
_symmetry_Int_Tables_number   1
_chemical_formula_structural   CuH7C5N2Cl
_chemical_formula_sum   'Cu2 H14 C10 N4 Cl2'
_cell_volume   329.83302088
_cell_formula_units_Z   2
loop_
 _symmetry_equiv_pos_site_id
 _symmetry_equiv_pos_as_xyz
  1  'x, y, z'
loop_
 _atom_site_type_symbol
 _atom_site_label
 _atom_site_symmetry_multiplicity
 _atom_site_fract_x
 _atom_site_fract_y
 _atom_site_fract_z
 _atom_site_occupancy
 _atom_site_pbe_bader_spin_density
 _atom_site_pbe_cm5_charge
 _atom_site_pbe_ddec_charge
 _atom_site_pbe_ddec_spin_density
 _atom_site_pbe_ddec_sum_bond_order
 _atom_site_pbe_magmom
Cu  Cu0  1  0.85244280  0.88936172  0.16648203  1  0  0.43271  0.427127  0  2.473053  0
Cu  Cu1  1  0.14756191  0.11063829  0.83351056  1  0  0.432684  0.427054  0  2.473027  0
H  H2  1  0.85068042  0.35861627  0.35061681  1  0  0.097259  0.108442  0  1.027125  0
H  H3  1  0.14930768  0.64139182  0.64938932  1  0  0.09728  0.108464  0  1.026727  0
H  H4  1  0.26829492  0.77053010  0.34629597  1  0  0.09298  0.103799  0  1.055472  0
H  H5  1  0.73169588  0.22948251  0.65370050  1  0  0.09298  0.103813  0  1.055677  0
H  H6  1  0.75309624  0.63425462  0.76496575  1  0  0.108213  0.167588  0  0.989064  0
H  H7  1  0.24690632  0.36573465  0.23503622  1  0  0.108179  0.167539  0  0.989188  0
H  H8  1  0.55262674  0.85065139  0.76289441  1  0  0.102394  0.160904  0  1.015095  0
H  H9  1  0.44736778  0.14933795  0.23710886  1  0  0.102412  0.160917  0  1.01521  0
H  H10  1  0.82145870  0.88306701  0.78543764  1  0  0.099491  0.141628  0  1.049634  0
H  H11  1  0.17854641  0.11693001  0.21456388  1  0  0.099464  0.141622  0  1.049799  0
H  H12  1  0.73700406  0.55200925  0.09465175  1  0  0.272783  0.281231  0  0.983654  0
H  H13  1  0.26299245  0.44799406  0.90535015  1  0  0.272752  0.281199  0  0.983668  0
H  H14  1  0.52191239  0.72477631  0.09753701  1  0  0.269769  0.281883  0  0.993748  0
H  H15  1  0.47808545  0.27523008  0.90246417  1  0  0.269801  0.281935  0  0.99378  0
C  C16  1  0.78578336  0.85260552  0.54384329  1  0  0.211373  0.411407  0  3.916707  0
C  C17  1  0.21421403  0.14738851  0.45616360  1  0  0.211436  0.411439  0  3.916674  0
C  C18  1  0.72534763  0.80297909  0.72408311  1  0  -0.213052  -0.430499  0  3.954622  0
C  C19  1  0.27465701  0.19701915  0.27589398  1  0  -0.21303  -0.430467  0  3.954502  0
C  C20  1  0.56942398  0.57559760  0.32844521  1  0  0.062285  0.23868  0  4.057368  0
C  C21  1  0.43055879  0.42441509  0.67155376  1  0  0.062301  0.238878  0  4.057251  0
C  C22  1  0.69677859  0.42085723  0.41616396  1  0  -0.105324  -0.169674  0  3.992037  0
C  C23  1  0.30323900  0.57914268  0.58382777  1  0  -0.105388  -0.169827  0  3.992272  0
C  C24  1  0.37145878  0.65343741  0.41386133  1  0  -0.108744  -0.179145  0  3.995805  0
C  C25  1  0.62854078  0.34655210  0.58615689  1  0  -0.108819  -0.179349  0  3.995801  0
N  N26  1  0.64897067  0.66450991  0.15808149  1  0  -0.629224  -0.582327  0  3.48561  0
N  N27  1  0.35103123  0.33548715  0.84192176  1  0  -0.629215  -0.582354  0  3.485511  0
N  N28  1  0.83567871  0.89236853  0.39784546  1  0  -0.396602  -0.443492  0  3.452225  0
N  N29  1  0.16432738  0.10763462  0.60215004  1  0  -0.396637  -0.443478  0  3.452734  0
Cl  Cl30  1  0.19154920  0.78062107  0.00508458  1  0  -0.296244  -0.517459  0  1.5848  0
Cl  Cl31  1  0.80844460  0.21937600  0.99491512  1  0  -0.296265  -0.51748  0  1.584742  0
