# generated using pymatgen
data_CuH4C8N2ClO
_symmetry_space_group_name_H-M   'P 1'
_cell_length_a   3.67479677
_cell_length_b   9.01705579
_cell_length_c   11.07392848
_cell_angle_alpha   77.62257634
_cell_angle_beta   89.62014675
_cell_angle_gamma   86.68011594
_symmetry_Int_Tables_number   1
_chemical_formula_structural   CuH4C8N2ClO
_chemical_formula_sum   'Cu2 H8 C16 N4 Cl2 O2'
_cell_volume   357.80726493
_cell_formula_units_Z   2
loop_
 _symmetry_equiv_pos_site_id
 _symmetry_equiv_pos_as_xyz
  1  'x, y, z'
loop_
 _atom_site_type_symbol
 _atom_site_label
 _atom_site_symmetry_multiplicity
 _atom_site_fract_x
 _atom_site_fract_y
 _atom_site_fract_z
 _atom_site_occupancy
 _atom_site_hle17_bader_spin_density
 _atom_site_hle17_ddec_charge
 _atom_site_hle17_ddec_spin_density
 _atom_site_hle17_ddec_sum_bond_order
 _atom_site_hle17_magmom
 _atom_site_hse06_10hf_bader_spin_density
 _atom_site_hse06_10hf_ddec_charge
 _atom_site_hse06_10hf_ddec_spin_density
 _atom_site_hse06_10hf_ddec_sum_bond_order
 _atom_site_hse06_10hf_magmom
 _atom_site_hse06_bader_spin_density
 _atom_site_hse06_ddec_charge
 _atom_site_hse06_ddec_spin_density
 _atom_site_hse06_ddec_sum_bond_order
 _atom_site_hse06_magmom
 _atom_site_pbe_bader_spin_density
 _atom_site_pbe_cm5_charge
 _atom_site_pbe_ddec_charge
 _atom_site_pbe_ddec_spin_density
 _atom_site_pbe_ddec_sum_bond_order
 _atom_site_pbe_magmom
Cu  Cu0  1  0.34123708  0.92909084  0.64663560  1  0  0.532866  0  1.831311  0  0  0.43064  0  2.317711  0  0  0.422093  0  2.277657  0  0  0.404495  0.434949  0  2.345814  0
Cu  Cu1  1  0.65876705  0.07091283  0.35337271  1  0  0.532993  0  1.830967  0  0  0.430684  0  2.317369  0  0  0.422078  0  2.277292  0  0  0.404505  0.43502  0  2.345501  0
H  H2  1  0.73970991  0.52363964  0.59315674  1  0  0.102746  0  0.952856  0  0  0.115125  0  1.010076  0  0  0.118024  0  1.009312  0  0  0.100066  0.113074  0  1.01072  0
H  H3  1  0.26028432  0.47635820  0.40684361  1  0  0.102783  0  0.952846  0  0  0.115161  0  1.010062  0  0  0.118064  0  1.009297  0  0  0.100069  0.11311  0  1.01071  0
H  H4  1  0.64699459  0.25355596  0.57642116  1  0  0.134968  0  0.9697  0  0  0.141257  0  1.033893  0  0  0.146787  0  1.030594  0  0  0.099235  0.137783  0  1.035579  0
H  H5  1  0.35299640  0.74644524  0.42357588  1  0  0.134977  0  0.969662  0  0  0.141253  0  1.033868  0  0  0.146791  0  1.030556  0  0  0.099254  0.13778  0  1.035555  0
H  H6  1  0.23249687  0.43197342  0.95359505  1  0  0.109874  0  0.950376  0  0  0.116393  0  1.016867  0  0  0.118948  0  1.015132  0  0  0.128148  0.114725  0  1.018311  0
H  H7  1  0.76752801  0.56801996  0.04640517  1  0  0.109936  0  0.950339  0  0  0.116534  0  1.016751  0  0  0.119092  0  1.015011  0  0  0.128159  0.114863  0  1.018201  0
H  H8  1  0.52947448  0.61420718  0.78025465  1  0  0.127545  0  0.957871  0  0  0.130756  0  1.027811  0  0  0.135535  0  1.023835  0  0  0.106427  0.127005  0  1.031382  0
H  H9  1  0.47055074  0.38578399  0.21975049  1  0  0.127537  0  0.957789  0  0  0.130738  0  1.027756  0  0  0.135518  0  1.023775  0  0  0.106431  0.126991  0  1.031317  0
C  C10  1  0.60554233  0.44562359  0.66636947  1  0  -0.007501  0  3.699925  0  0  -0.030645  0  3.95616  0  0  -0.026044  0  3.970603  0  0  -0.075595  -0.03463  0  3.947323  0
C  C11  1  0.39446783  0.55437663  0.33363494  1  0  -0.007604  0  3.699852  0  0  -0.030752  0  3.956102  0  0  -0.026149  0  3.970547  0  0  -0.075636  -0.034733  0  3.947272  0
C  C12  1  0.12678504  0.13738630  0.94050624  1  0  -0.059094  0  3.732237  0  0  -0.078195  0  3.992829  0  0  -0.089389  0  4.019236  0  0  0.065319  -0.070692  0  3.974803  0
C  C13  1  0.87321432  0.86261376  0.05948829  1  0  -0.059191  0  3.732379  0  0  -0.078294  0  3.992969  0  0  -0.089482  0  4.019374  0  0  0.065202  -0.070789  0  3.974945  0
C  C14  1  0.55483788  0.29797755  0.65604619  1  0  -0.16697  0  3.690791  0  0  -0.186679  0  3.949396  0  0  -0.190916  0  3.962698  0  0  -0.084686  -0.184515  0  3.940611  0
C  C15  1  0.44515257  0.70202706  0.34395023  1  0  -0.166901  0  3.690815  0  0  -0.186562  0  3.949456  0  0  -0.190799  0  3.962751  0  0  -0.08465  -0.184398  0  3.940675  0
C  C16  1  0.32729827  0.40232719  0.86835183  1  0  0.073034  0  3.604364  0  0  0.028056  0  3.865015  0  0  0.030695  0  3.88461  0  0  0.042632  0.024864  0  3.853678  0
C  C17  1  0.67272356  0.59766843  0.13164527  1  0  0.073042  0  3.60414  0  0  0.027997  0  3.864757  0  0  0.030635  0  3.884352  0  0  0.04268  0.024803  0  3.853427  0
C  C18  1  0.49007530  0.49792475  0.77260477  1  0  -0.100115  0  3.716057  0  0  -0.11632  0  3.977859  0  0  -0.11996  0  3.996863  0  0  -0.082043  -0.113679  0  3.966905  0
C  C19  1  0.50992962  0.50207429  0.22739716  1  0  -0.10012  0  3.71585  0  0  -0.116322  0  3.977719  0  0  -0.119968  0  3.996732  0  0  -0.082094  -0.113677  0  3.966776  0
C  C20  1  0.15010450  0.01343409  0.88180569  1  0  0.073054  0  3.778112  0  0  0.057386  0  4.042343  0  0  0.062717  0  4.058094  0  0  0.088251  0.054628  0  4.031096  0
C  C21  1  0.84988360  0.98656824  0.11819115  1  0  0.073075  0  3.778003  0  0  0.057441  0  4.042184  0  0  0.062772  0  4.057935  0  0  0.088245  0.05467  0  4.030954  0
C  C22  1  0.38375487  0.20182487  0.75307872  1  0  0.315601  0  3.720552  0  0  0.289711  0  3.979733  0  0  0.301623  0  3.994229  0  0  0.209951  0.281934  0  3.970349  0
C  C23  1  0.61623398  0.79817287  0.24691534  1  0  0.315524  0  3.720568  0  0  0.289528  0  3.979911  0  0  0.301438  0  3.994405  0  0  0.209878  0.281752  0  3.970538  0
C  C24  1  0.96982458  0.13831663  0.06005090  1  0  0.324974  0  3.861195  0  0  0.302823  0  4.139606  0  0  0.331213  0  4.131382  0  0  0.125896  0.284307  0  4.143447  0
C  C25  1  0.03016042  0.86168798  0.93994643  1  0  0.324954  0  3.860929  0  0  0.302804  0  4.139381  0  0  0.331196  0  4.131163  0  0  0.125855  0.284279  0  4.143215  0
N  N26  1  0.27596630  0.25630478  0.85782346  1  0  -0.071079  0  3.595073  0  0  0.019174  0  3.793447  0  0  0.007226  0  3.823903  0  0  -0.201031  0.027037  0  3.77355  0
N  N27  1  0.72403522  0.74369872  0.14217134  1  0  -0.071031  0  3.595013  0  0  0.019264  0  3.793417  0  0  0.007316  0  3.823874  0  0  -0.200994  0.027128  0  3.773518  0
N  N28  1  0.30210518  0.05299279  0.76758670  1  0  -0.388558  0  3.296718  0  0  -0.335197  0  3.627326  0  0  -0.34055  0  3.625466  0  0  -0.378649  -0.331669  0  3.627966  0
N  N29  1  0.69787997  0.94701073  0.23241534  1  0  -0.388534  0  3.296325  0  0  -0.335166  0  3.626957  0  0  -0.340501  0  3.625052  0  0  -0.378536  -0.331639  0  3.627631  0
Cl  Cl30  1  0.85077916  0.82469723  0.57703915  1  0  -0.545019  0  1.447787  0  0  -0.468779  0  1.856625  0  0  -0.486447  0  1.821438  0  0  -0.279981  -0.45536  0  1.881692  0
Cl  Cl31  1  0.14920947  0.17531787  0.42297703  1  0  -0.545099  0  1.447644  0  0  -0.468821  0  1.856437  0  0  -0.486469  0  1.821217  0  0  -0.279989  -0.455421  0  1.881545  0
O  O32  1  0.92973087  0.25185793  0.10785513  1  0  -0.45631  0  1.916695  0  0  -0.415466  0  2.141307  0  0  -0.421507  0  2.128811  0  0  -0.268412  -0.409728  0  2.149589  0
O  O33  1  0.07027072  0.74812842  0.89213557  1  0  -0.456357  0  1.916356  0  0  -0.415529  0  2.140976  0  0  -0.42158  0  2.128489  0  0  -0.268405  -0.409774  0  2.149246  0
