# generated using pymatgen
data_CuH4C6SIN2
_symmetry_space_group_name_H-M   'P 1'
_cell_length_a   4.06015580
_cell_length_b   10.24741931
_cell_length_c   10.31443700
_cell_angle_alpha   69.77505688
_cell_angle_beta   84.70077498
_cell_angle_gamma   78.95868826
_symmetry_Int_Tables_number   1
_chemical_formula_structural   CuH4C6SIN2
_chemical_formula_sum   'Cu2 H8 C12 S2 I2 N4'
_cell_volume   395.07054075
_cell_formula_units_Z   2
loop_
 _symmetry_equiv_pos_site_id
 _symmetry_equiv_pos_as_xyz
  1  'x, y, z'
loop_
 _atom_site_type_symbol
 _atom_site_label
 _atom_site_symmetry_multiplicity
 _atom_site_fract_x
 _atom_site_fract_y
 _atom_site_fract_z
 _atom_site_occupancy
 _atom_site_hle17_bader_spin_density
 _atom_site_hle17_ddec_charge
 _atom_site_hle17_ddec_spin_density
 _atom_site_hle17_ddec_sum_bond_order
 _atom_site_hle17_magmom
 _atom_site_hse06_10hf_bader_spin_density
 _atom_site_hse06_10hf_ddec_charge
 _atom_site_hse06_10hf_ddec_spin_density
 _atom_site_hse06_10hf_ddec_sum_bond_order
 _atom_site_hse06_10hf_magmom
 _atom_site_hse06_bader_spin_density
 _atom_site_hse06_ddec_charge
 _atom_site_hse06_ddec_spin_density
 _atom_site_hse06_ddec_sum_bond_order
 _atom_site_hse06_magmom
 _atom_site_pbe_bader_spin_density
 _atom_site_pbe_cm5_charge
 _atom_site_pbe_ddec_charge
 _atom_site_pbe_ddec_spin_density
 _atom_site_pbe_ddec_sum_bond_order
 _atom_site_pbe_magmom
Cu  Cu0  1  0.27644365  0.47706595  0.92123042  1  0  0.256581  0  2.215483  0  0  0.179085  0  2.705058  0  0  0.190867  0  2.647745  0  0  0.245202  0.173992  0  2.741968  0
Cu  Cu1  1  0.72355540  0.52293519  0.07876699  1  0  0.256571  0  2.215498  0  0  0.179077  0  2.705069  0  0  0.190928  0  2.64775  0  0  0.245202  0.173983  0  2.741989  0
H  H2  1  0.66489510  0.45235502  0.63943846  1  0  0.107199  0  0.970774  0  0  0.116023  0  1.036683  0  0  0.119328  0  1.035666  0  0  0.093506  0.113268  0  1.038136  0
H  H3  1  0.33510574  0.54764191  0.36056519  1  0  0.107146  0  0.970809  0  0  0.115966  0  1.036723  0  0  0.119269  0  1.035712  0  0  0.093498  0.113242  0  1.038141  0
H  H4  1  0.48599987  0.96669409  0.67272936  1  0  0.106578  0  0.967391  0  0  0.113961  0  1.034692  0  0  0.117504  0  1.033039  0  0  0.094184  0.111743  0  1.035227  0
H  H5  1  0.51400250  0.03330493  0.32726866  1  0  0.106635  0  0.967299  0  0  0.113978  0  1.034657  0  0  0.117521  0  1.033003  0  0  0.094177  0.111759  0  1.035192  0
H  H6  1  0.80233073  0.11259257  0.47138047  1  0  0.086718  0  0.956264  0  0  0.098612  0  1.017389  0  0  0.101416  0  1.016388  0  0  0.095649  0.096496  0  1.018203  0
H  H7  1  0.19767002  0.88741069  0.52861905  1  0  0.086696  0  0.956324  0  0  0.098614  0  1.017412  0  0  0.101411  0  1.016428  0  0  0.095643  0.096497  0  1.018225  0
H  H8  1  0.88582143  0.34908192  0.45502877  1  0  0.087486  0  0.974088  0  0  0.098006  0  1.037808  0  0  0.100963  0  1.036423  0  0  0.086847  0.095285  0  1.039715  0
H  H9  1  0.11418019  0.65091922  0.54497242  1  0  0.087477  0  0.974057  0  0  0.098029  0  1.03776  0  0  0.10099  0  1.036365  0  0  0.086838  0.095307  0  1.039663  0
C  C10  1  0.44337872  0.26798921  0.75870967  1  0  0.175887  0  3.782161  0  0  0.172628  0  4.022776  0  0  0.177855  0  4.043602  0  0  0.099232  0.169206  0  4.009011  0
C  C11  1  0.55662325  0.73201087  0.24128896  1  0  0.175875  0  3.782129  0  0  0.172616  0  4.022736  0  0  0.177839  0  4.04356  0  0  0.099221  0.169195  0  4.008976  0
C  C12  1  0.62367269  0.34855498  0.64496605  1  0  -0.134822  0  3.69777  0  0  -0.151284  0  3.943773  0  0  -0.156089  0  3.963588  0  0  -0.094615  -0.149057  0  3.932186  0
C  C13  1  0.37632888  0.65144616  0.35503320  1  0  -0.134734  0  3.697713  0  0  -0.151183  0  3.943728  0  0  -0.15599  0  3.963545  0  0  -0.094585  -0.14898  0  3.932112  0
C  C14  1  0.38878120  0.13008931  0.76756897  1  0  0.167491  0  3.809518  0  0  0.170688  0  4.055065  0  0  0.173794  0  4.076178  0  0  0.102481  0.169135  0  4.040075  0
C  C15  1  0.61121214  0.86990762  0.23243111  1  0  0.167534  0  3.809443  0  0  0.170735  0  4.054971  0  0  0.173868  0  4.076049  0  0  0.102511  0.169182  0  4.039973  0
C  C16  1  0.52135112  0.07235102  0.66335250  1  0  -0.126766  0  3.706365  0  0  -0.147291  0  3.958121  0  0  -0.15032  0  3.977161  0  0  -0.090343  -0.145596  0  3.945384  0
C  C17  1  0.47864924  0.92764696  0.33664790  1  0  -0.12681  0  3.706313  0  0  -0.14729  0  3.958033  0  0  -0.150327  0  3.977067  0  0  -0.090344  -0.145595  0  3.945292  0
C  C18  1  0.69598570  0.15336368  0.55366328  1  0  -0.055027  0  3.75042  0  0  -0.073284  0  4.007128  0  0  -0.074391  0  4.027116  0  0  -0.09097  -0.072957  0  3.995188  0
C  C19  1  0.30401633  0.84663641  0.44633825  1  0  -0.055017  0  3.750509  0  0  -0.073287  0  4.007211  0  0  -0.074397  0  4.027201  0  0  -0.090972  -0.072961  0  3.995267  0
C  C20  1  0.74485322  0.29027480  0.54426712  1  0  -0.042521  0  3.743434  0  0  -0.059095  0  3.994822  0  0  -0.058623  0  4.014384  0  0  -0.089174  -0.060628  0  3.984571  0
C  C21  1  0.25515419  0.70972423  0.45573457  1  0  -0.042557  0  3.743417  0  0  -0.059174  0  3.994816  0  0  -0.058699  0  4.014378  0  0  -0.089167  -0.060704  0  3.984566  0
S  S22  1  0.12394001  0.17352262  0.97071642  1  0  0.496669  0  3.00612  0  0  0.46813  0  3.409299  0  0  0.48173  0  3.412557  0  0  0.381364  0.456774  0  3.409442  0
S  S23  1  0.87606116  0.82647958  0.02928345  1  0  0.496634  0  3.006234  0  0  0.468093  0  3.409437  0  0  0.481693  0  3.412708  0  0  0.381338  0.456733  0  3.409584  0
I  I24  1  0.71393129  0.64172382  0.80392882  1  0  -0.337592  0  1.784789  0  0  -0.284928  0  2.250108  0  0  -0.303435  0  2.208564  0  0  -0.158044  -0.26876  0  2.277943  0
I  I25  1  0.28607026  0.35827731  0.19606947  1  0  -0.3376  0  1.784778  0  0  -0.284937  0  2.250095  0  0  -0.303459  0  2.208561  0  0  -0.158045  -0.268773  0  2.277949  0
N  N26  1  0.30614164  0.30394197  0.86936096  1  0  -0.398593  0  3.238425  0  0  -0.338932  0  3.556651  0  0  -0.349667  0  3.559504  0  0  -0.369761  -0.333535  0  3.55564  0
N  N27  1  0.69385206  0.69606023  0.13063727  1  0  -0.39856  0  3.23834  0  0  -0.338909  0  3.556571  0  0  -0.349665  0  3.559462  0  0  -0.36976  -0.333514  0  3.555568  0
N  N28  1  0.20815128  0.06807392  0.88166330  1  0  -0.389271  0  2.935435  0  0  -0.362299  0  3.232473  0  0  -0.370929  0  3.244937  0  0  -0.30555  -0.355345  0  3.223663  0
N  N29  1  0.79184534  0.93192722  0.11833615  1  0  -0.389307  0  2.935528  0  0  -0.362348  0  3.23257  0  0  -0.370985  0  3.245025  0  0  -0.305562  -0.355392  0  3.223759  0
