# generated using pymatgen
data_LiH6C6N5
_symmetry_space_group_name_H-M   'P 1'
_cell_length_a   5.32056774
_cell_length_b   7.60527249
_cell_length_c   10.74575177
_cell_angle_alpha   89.99245494
_cell_angle_beta   89.99226703
_cell_angle_gamma   90.02327611
_symmetry_Int_Tables_number   1
_chemical_formula_structural   LiH6C6N5
_chemical_formula_sum   'Li2 H12 C12 N10'
_cell_volume   434.82000451
_cell_formula_units_Z   2
loop_
 _symmetry_equiv_pos_site_id
 _symmetry_equiv_pos_as_xyz
  1  'x, y, z'
loop_
 _atom_site_type_symbol
 _atom_site_label
 _atom_site_symmetry_multiplicity
 _atom_site_fract_x
 _atom_site_fract_y
 _atom_site_fract_z
 _atom_site_occupancy
 _atom_site_hle17_bader_spin_density
 _atom_site_hle17_ddec_charge
 _atom_site_hle17_ddec_spin_density
 _atom_site_hle17_ddec_sum_bond_order
 _atom_site_hle17_magmom
 _atom_site_hse06_10hf_bader_spin_density
 _atom_site_hse06_10hf_ddec_charge
 _atom_site_hse06_10hf_ddec_spin_density
 _atom_site_hse06_10hf_ddec_sum_bond_order
 _atom_site_hse06_10hf_magmom
 _atom_site_hse06_bader_spin_density
 _atom_site_hse06_ddec_charge
 _atom_site_hse06_ddec_spin_density
 _atom_site_hse06_ddec_sum_bond_order
 _atom_site_hse06_magmom
 _atom_site_pbe_bader_spin_density
 _atom_site_pbe_cm5_charge
 _atom_site_pbe_ddec_charge
 _atom_site_pbe_ddec_spin_density
 _atom_site_pbe_ddec_sum_bond_order
 _atom_site_pbe_magmom
Li  Li0  1  0.88090584  0.75000275  0.75000436  1  0  0.842348  0  0.437997  0  0  0.784784  0  0.577358  0  0  0.795764  0  0.558379  0  0  0.578136  0.777087  0  0.590717  0
Li  Li1  1  0.11909690  0.25001827  0.24999127  1  0  0.842359  0  0.438008  0  0  0.784871  0  0.577259  0  0  0.795841  0  0.558294  0  0  0.578245  0.777198  0  0.590573  0
H  H2  1  0.06965576  0.75007921  0.52248174  1  0  0.152812  0  0.954523  0  0  0.16803  0  1.019295  0  0  0.169804  0  1.018583  0  0  0.122845  0.166796  0  1.019764  0
H  H3  1  0.06966562  0.75011920  0.97752856  1  0  0.153021  0  0.954634  0  0  0.168284  0  1.019283  0  0  0.170057  0  1.018569  0  0  0.122871  0.16705  0  1.019753  0
H  H4  1  0.93032632  0.24997074  0.47750923  1  0  0.152786  0  0.95484  0  0  0.168028  0  1.019556  0  0  0.1698  0  1.018843  0  0  0.122856  0.166797  0  1.020026  0
H  H5  1  0.93032582  0.24986500  0.02246893  1  0  0.153044  0  0.954514  0  0  0.168347  0  1.019189  0  0  0.17012  0  1.018475  0  0  0.12291  0.167114  0  1.01966  0
H  H6  1  0.23550794  0.86774253  0.40400724  1  0  0.155197  0  0.933798  0  0  0.171341  0  0.994512  0  0  0.172523  0  0.994924  0  0  0.120705  0.170452  0  0.994294  0
H  H7  1  0.23531997  0.63249310  0.09605714  1  0  0.155027  0  0.934148  0  0  0.171154  0  0.994838  0  0  0.172339  0  0.995244  0  0  0.120634  0.170261  0  0.994623  0
H  H8  1  0.76460757  0.36758105  0.59601865  1  0  0.154982  0  0.933985  0  0  0.171154  0  0.994688  0  0  0.172333  0  0.9951  0  0  0.120689  0.170262  0  0.994474  0
H  H9  1  0.76453050  0.13223191  0.90399848  1  0  0.155391  0  0.933859  0  0  0.171546  0  0.994534  0  0  0.17273  0  0.994939  0  0  0.120809  0.170656  0  0.994319  0
H  H10  1  0.76451924  0.13230741  0.59600327  1  0  0.155003  0  0.93395  0  0  0.171209  0  0.994569  0  0  0.172387  0  0.994985  0  0  0.120732  0.17032  0  0.994352  0
H  H11  1  0.76458877  0.36750687  0.90397198  1  0  0.155019  0  0.934063  0  0  0.171272  0  0.994649  0  0  0.172458  0  0.995057  0  0  0.120716  0.17038  0  0.994436  0
H  H12  1  0.23541022  0.63246890  0.40397512  1  0  0.154891  0  0.93412  0  0  0.171089  0  0.994761  0  0  0.172274  0  0.99517  0  0  0.120661  0.170195  0  0.994549  0
H  H13  1  0.23545718  0.86776412  0.09600087  1  0  0.15538  0  0.9339  0  0  0.171513  0  0.994537  0  0  0.172698  0  0.994943  0  0  0.120784  0.170623  0  0.99432  0
C  C14  1  0.19036119  0.10133201  0.74999083  1  0  0.51844  0  4.001733  0  0  0.489643  0  4.276632  0  0  0.513539  0  4.288564  0  0  0.311754  0.473475  0  4.268211  0
C  C15  1  0.19020410  0.39871914  0.74999727  1  0  0.519072  0  4.000175  0  0  0.490305  0  4.275038  0  0  0.514215  0  4.286943  0  0  0.31192  0.474129  0  4.266635  0
C  C16  1  0.80976104  0.60127690  0.24999184  1  0  0.518965  0  3.999831  0  0  0.4903  0  4.27474  0  0  0.514138  0  4.286632  0  0  0.311934  0.474109  0  4.266334  0
C  C17  1  0.80972800  0.89868375  0.24999922  1  0  0.518765  0  4.001222  0  0  0.490087  0  4.276081  0  0  0.513918  0  4.287983  0  0  0.311779  0.473902  0  4.267667  0
C  C18  1  0.46056327  0.75003345  0.53960279  1  0  0.464108  0  3.694502  0  0  0.452343  0  3.974597  0  0  0.465441  0  3.99061  0  0  0.233442  0.443386  0  3.963894  0
C  C19  1  0.46055808  0.75004210  0.96042306  1  0  0.464217  0  3.694186  0  0  0.452385  0  3.97433  0  0  0.465482  0  3.990348  0  0  0.233394  0.443427  0  3.963627  0
C  C20  1  0.53943006  0.24998231  0.46040772  1  0  0.464138  0  3.69478  0  0  0.452345  0  3.974912  0  0  0.465449  0  3.990916  0  0  0.233433  0.44339  0  3.964208  0
C  C21  1  0.53943708  0.24987373  0.03959956  1  0  0.464133  0  3.693474  0  0  0.452453  0  3.973626  0  0  0.465552  0  3.989636  0  0  0.233389  0.443497  0  3.962922  0
C  C22  1  0.23790732  0.75007563  0.46324672  1  0  -0.382722  0  3.742911  0  0  -0.451862  0  3.96969  0  0  -0.455244  0  3.975805  0  0  -0.199598  -0.449278  0  3.965408  0
C  C23  1  0.23782418  0.75011544  0.03678330  1  0  -0.383291  0  3.743018  0  0  -0.452337  0  3.969676  0  0  -0.455712  0  3.97577  0  0  -0.19962  -0.449761  0  3.965405  0
C  C24  1  0.76210106  0.24996512  0.53674239  1  0  -0.382692  0  3.743303  0  0  -0.451852  0  3.970086  0  0  -0.455224  0  3.976191  0  0  -0.19971  -0.449274  0  3.965809  0
C  C25  1  0.76215033  0.24985562  0.96322908  1  0  -0.38324  0  3.742788  0  0  -0.452576  0  3.969648  0  0  -0.455953  0  3.975737  0  0  -0.199795  -0.450002  0  3.965381  0
N  N26  1  0.31050386  0.25006225  0.74999712  1  0  -0.484059  0  3.239049  0  0  -0.424879  0  3.484674  0  0  -0.449486  0  3.491803  0  0  -0.310619  -0.407836  0  3.479348  0
N  N27  1  0.68949701  0.74996929  0.24999758  1  0  -0.48423  0  3.238471  0  0  -0.42528  0  3.484226  0  0  -0.449728  0  3.491234  0  0  -0.310553  -0.408207  0  3.478886  0
N  N28  1  0.09317690  0.96205608  0.74998721  1  0  -0.688675  0  2.68738  0  0  -0.656769  0  2.936136  0  0  -0.673738  0  2.940632  0  0  -0.463551  -0.645141  0  2.93302  0
N  N29  1  0.09288375  0.53792134  0.74999489  1  0  -0.688854  0  2.686951  0  0  -0.657047  0  2.935802  0  0  -0.673995  0  2.940239  0  0  -0.463556  -0.645417  0  2.932693  0
N  N30  1  0.90704379  0.46206155  0.24998678  1  0  -0.688812  0  2.686766  0  0  -0.656976  0  2.935503  0  0  -0.673945  0  2.940016  0  0  -0.46359  -0.645357  0  2.932388  0
N  N31  1  0.90697430  0.03794259  0.24999818  1  0  -0.68879  0  2.687514  0  0  -0.656936  0  2.936235  0  0  -0.673906  0  2.940748  0  0  -0.46369  -0.645315  0  2.933118  0
N  N32  1  0.64077945  0.74996554  0.60086580  1  0  -0.553444  0  2.675003  0  0  -0.523983  0  2.91484  0  0  -0.537975  0  2.924067  0  0  -0.380076  -0.514717  0  2.909018  0
N  N33  1  0.64079019  0.74995771  0.89914089  1  0  -0.553477  0  2.674955  0  0  -0.524019  0  2.914897  0  0  -0.538016  0  2.924129  0  0  -0.380147  -0.514752  0  2.909073  0
N  N34  1  0.35922138  0.25001209  0.39913635  1  0  -0.553355  0  2.675065  0  0  -0.523931  0  2.914911  0  0  -0.537916  0  2.924135  0  0  -0.380004  -0.514672  0  2.909078  0
N  N35  1  0.35918804  0.24994628  0.10087149  1  0  -0.553459  0  2.674376  0  0  -0.524035  0  2.914191  0  0  -0.538027  0  2.923422  0  0  -0.380129  -0.514777  0  2.908357  0
