# generated using pymatgen
data_ZnH6(C3N2)2
_symmetry_space_group_name_H-M   'P 1'
_cell_length_a   7.02062912
_cell_length_b   7.84467433
_cell_length_c   7.78227214
_cell_angle_alpha   109.35083327
_cell_angle_beta   90.00007945
_cell_angle_gamma   89.99978291
_symmetry_Int_Tables_number   1
_chemical_formula_structural   ZnH6(C3N2)2
_chemical_formula_sum   'Zn2 H12 C12 N8'
_cell_volume   404.39208685
_cell_formula_units_Z   2
loop_
 _symmetry_equiv_pos_site_id
 _symmetry_equiv_pos_as_xyz
  1  'x, y, z'
loop_
 _atom_site_type_symbol
 _atom_site_label
 _atom_site_symmetry_multiplicity
 _atom_site_fract_x
 _atom_site_fract_y
 _atom_site_fract_z
 _atom_site_occupancy
 _atom_site_pbe_bader_spin_density
 _atom_site_pbe_cm5_charge
 _atom_site_pbe_ddec_charge
 _atom_site_pbe_ddec_spin_density
 _atom_site_pbe_ddec_sum_bond_order
 _atom_site_pbe_magmom
Zn  Zn0  1  0.98385042  0.80617924  0.09394623  1  0  0.595378  0.534589  0  2.890451  0
Zn  Zn1  1  0.48384865  0.19382135  0.90605401  1  0  0.595362  0.534567  0  2.890411  0
H  H2  1  0.00362135  0.64555213  0.66183931  1  0  0.128228  0.104177  0  1.081437  0
H  H3  1  0.50361963  0.35444879  0.33816043  1  0  0.128212  0.104155  0  1.081468  0
H  H4  1  0.99696221  0.11883839  0.69964638  1  0  0.122088  0.132854  0  1.036541  0
H  H5  1  0.49696386  0.88116351  0.30035429  1  0  0.122092  0.13285  0  1.036577  0
H  H6  1  0.98384843  0.37262602  0.04896122  1  0  0.116903  0.113662  0  1.010749  0
H  H7  1  0.48384780  0.62737593  0.95103944  1  0  0.11694  0.113735  0  1.010635  0
H  H8  1  0.13334976  0.19684589  0.38554234  1  0  0.106486  0.129579  0  1.014  0
H  H9  1  0.63335231  0.80315459  0.61445872  1  0  0.106511  0.129607  0  1.014033  0
H  H10  1  0.01970140  0.39638751  0.37344038  1  0  0.110492  0.128671  0  0.995301  0
H  H11  1  0.51970337  0.60361199  0.62655894  1  0  0.110503  0.12867  0  0.995334  0
H  H12  1  0.87765197  0.20857949  0.37820820  1  0  0.10458  0.124113  0  1.021169  0
H  H13  1  0.37765446  0.79142015  0.62179289  1  0  0.104591  0.124116  0  1.021198  0
C  C14  1  0.99951588  0.80389217  0.34458563  1  0  -0.015448  -0.110396  0  3.716883  0
C  C15  1  0.49951230  0.19610695  0.65541031  1  0  -0.015412  -0.110397  0  3.716995  0
C  C16  1  0.79079471  0.95902632  0.02413475  1  0  0.036459  -0.03089  0  3.543805  0
C  C17  1  0.29079367  0.04097229  0.97586719  1  0  0.036451  -0.030927  0  3.543874  0
C  C18  1  0.00020027  0.53940828  0.72355122  1  0  0.137162  0.077043  0  3.867735  0
C  C19  1  0.50019945  0.46059132  0.27644939  1  0  0.137187  0.077082  0  3.867712  0
C  C20  1  0.99705880  0.26531900  0.74672355  1  0  0.004192  -0.1062  0  3.905684  0
C  C21  1  0.49705955  0.73468152  0.25327539  1  0  0.004203  -0.106188  0  3.90565  0
C  C22  1  0.99071451  0.39225334  0.91778553  1  0  -0.006493  -0.045069  0  4.014815  0
C  C23  1  0.49071268  0.60774859  0.08221514  1  0  -0.006505  -0.04512  0  4.01479  0
C  C24  1  0.00876391  0.28493746  0.42829608  1  0  -0.126599  -0.281223  0  3.85675  0
C  C25  1  0.50876533  0.71506346  0.57170496  1  0  -0.126682  -0.281306  0  3.856884  0
N  N26  1  0.00858341  0.81003301  0.49677064  1  0  -0.346099  -0.325324  0  3.080546  0
N  N27  1  0.50858119  0.18996528  0.50323342  1  0  -0.346144  -0.325313  0  3.08071  0
N  N28  1  0.70218981  0.05907450  0.97360245  1  0  -0.359618  -0.286514  0  3.424262  0
N  N29  1  0.20219223  0.94092707  0.02639775  1  0  -0.359612  -0.286482  0  3.424338  0
N  N30  1  0.99280656  0.56249488  0.90165265  1  0  -0.369252  -0.265591  0  3.652149  0
N  N31  1  0.49280544  0.43750706  0.09834932  1  0  -0.369293  -0.265626  0  3.65219  0
N  N32  1  0.00319460  0.36110413  0.62635901  1  0  -0.238444  0.10654  0  3.779087  0
N  N33  1  0.50319462  0.63889548  0.37364289  1  0  -0.23842  0.106556  0  3.778976  0
