# generated using pymatgen
data_Cu2H4C6N5Cl
_symmetry_space_group_name_H-M   'P 1'
_cell_length_a   3.56415231
_cell_length_b   9.97625492
_cell_length_c   11.53855862
_cell_angle_alpha   103.19705856
_cell_angle_beta   90.08918815
_cell_angle_gamma   100.20489964
_symmetry_Int_Tables_number   1
_chemical_formula_structural   Cu2H4C6N5Cl
_chemical_formula_sum   'Cu4 H8 C12 N10 Cl2'
_cell_volume   392.74329535
_cell_formula_units_Z   2
loop_
 _symmetry_equiv_pos_site_id
 _symmetry_equiv_pos_as_xyz
  1  'x, y, z'
loop_
 _atom_site_type_symbol
 _atom_site_label
 _atom_site_symmetry_multiplicity
 _atom_site_fract_x
 _atom_site_fract_y
 _atom_site_fract_z
 _atom_site_occupancy
 _atom_site_pbe_bader_spin_density
 _atom_site_pbe_cm5_charge
 _atom_site_pbe_ddec_charge
 _atom_site_pbe_ddec_spin_density
 _atom_site_pbe_ddec_sum_bond_order
 _atom_site_pbe_magmom
Cu  Cu0  1  0.82749703  0.65357974  0.83700142  1  0  0.453901  0.305685  0  2.464231  0
Cu  Cu1  1  0.82255009  0.65366561  0.33716448  1  0  0.45381  0.305579  0  2.464706  0
Cu  Cu2  1  0.74873199  0.84154232  0.65306574  1  0  0.478372  0.285504  0  2.282995  0
Cu  Cu3  1  0.09204282  0.84178166  0.15214258  1  0  0.479207  0.285564  0  2.279244  0
H  H4  1  0.06592495  0.98767450  0.48133539  1  0  0.096206  0.08888  0  1.06022  0
H  H5  1  0.92421354  0.98842698  0.97997180  1  0  0.09644  0.088235  0  1.059871  0
H  H6  1  0.10518237  0.22796761  0.44812622  1  0  0.108964  0.116601  0  1.027709  0
H  H7  1  0.12292055  0.22925627  0.94783758  1  0  0.109177  0.116708  0  1.028614  0
H  H8  1  0.61209340  0.10169316  0.81261124  1  0  0.10906  0.089194  0  1.014557  0
H  H9  1  0.49353773  0.10090283  0.31139147  1  0  0.10894  0.089174  0  1.014753  0
H  H10  1  0.65742739  0.34821151  0.79748498  1  0  0.102416  0.103284  0  1.098549  0
H  H11  1  0.69301091  0.34776297  0.29717475  1  0  0.102575  0.103449  0  1.097734  0
C  C12  1  0.97375713  0.07021522  0.54810484  1  0  0.032174  0.086122  0  3.922294  0
C  C13  1  0.09860772  0.07072834  0.04702587  1  0  0.032496  0.088508  0  3.923274  0
C  C14  1  0.99705860  0.20399398  0.53054477  1  0  -0.083605  -0.160781  0  3.936642  0
C  C15  1  0.20757761  0.20471532  0.03006287  1  0  -0.084668  -0.163232  0  3.938967  0
C  C16  1  0.72886305  0.13555263  0.73453160  1  0  0.037554  0.090482  0  3.905264  0
C  C17  1  0.40984975  0.13522805  0.23350160  1  0  0.037035  0.089811  0  3.90682  0
C  C18  1  0.75198221  0.27291346  0.72457393  1  0  -0.0855  -0.159168  0  3.927416  0
C  C19  1  0.52287837  0.27274976  0.22410858  1  0  -0.08548  -0.158718  0  3.924655  0
C  C20  1  0.87826114  0.30843081  0.61867970  1  0  0.01427  0.074441  0  3.9894  0
C  C21  1  0.43044152  0.30886481  0.11850244  1  0  0.014801  0.075182  0  3.990039  0
C  C22  1  0.86411829  0.44283627  0.59116205  1  0  0.213799  0.229615  0  4.016056  0
C  C23  1  0.57768290  0.44335798  0.09119519  1  0  0.213936  0.229252  0  4.016134  0
N  N24  1  0.80551183  0.56336151  0.66473267  1  0  -0.26287  -0.202701  0  3.532015  0
N  N25  1  0.75669865  0.56382205  0.16476100  1  0  -0.262034  -0.201444  0  3.530706  0
N  N26  1  0.78652661  0.65158256  0.59306506  1  0  -0.180085  -0.025782  0  3.626234  0
N  N27  1  0.86270157  0.65203549  0.09309473  1  0  -0.180797  -0.02642  0  3.627522  0
N  N28  1  0.83047723  0.58561417  0.48042249  1  0  -0.15586  -0.018002  0  3.678664  0
N  N29  1  0.75215681  0.58606376  0.98044284  1  0  -0.156309  -0.018784  0  3.679733  0
N  N30  1  0.88161011  0.45640217  0.47755082  1  0  -0.206596  -0.237105  0  3.230078  0
N  N31  1  0.57251641  0.45692464  0.97755994  1  0  -0.206871  -0.236309  0  3.22843  0
N  N32  1  0.83267800  0.03406969  0.64797121  1  0  -0.38065  -0.201147  0  3.711153  0
N  N33  1  0.20458592  0.03404303  0.14668276  1  0  -0.380811  -0.201769  0  3.714138  0
Cl  Cl34  1  0.41053394  0.82456434  0.83896603  1  0  -0.291218  -0.464682  0  1.859234  0
Cl  Cl35  1  0.41033740  0.82454315  0.33927158  1  0  -0.291779  -0.465227  0  1.855454  0
