# generated using pymatgen
data_H2PbC3O4
_symmetry_space_group_name_H-M   'P 1'
_cell_length_a   5.32716481
_cell_length_b   6.95824504
_cell_length_c   12.80412473
_cell_angle_alpha   99.71634864
_cell_angle_beta   89.98537479
_cell_angle_gamma   89.99319637
_symmetry_Int_Tables_number   1
_chemical_formula_structural   H2PbC3O4
_chemical_formula_sum   'H8 Pb4 C12 O16'
_cell_volume   467.81141263
_cell_formula_units_Z   4
loop_
 _symmetry_equiv_pos_site_id
 _symmetry_equiv_pos_as_xyz
  1  'x, y, z'
loop_
 _atom_site_type_symbol
 _atom_site_label
 _atom_site_symmetry_multiplicity
 _atom_site_fract_x
 _atom_site_fract_y
 _atom_site_fract_z
 _atom_site_occupancy
 _atom_site_hle17_bader_spin_density
 _atom_site_hle17_ddec_charge
 _atom_site_hle17_ddec_spin_density
 _atom_site_hle17_ddec_sum_bond_order
 _atom_site_hle17_magmom
 _atom_site_hse06_10hf_bader_spin_density
 _atom_site_hse06_10hf_ddec_charge
 _atom_site_hse06_10hf_ddec_spin_density
 _atom_site_hse06_10hf_ddec_sum_bond_order
 _atom_site_hse06_10hf_magmom
 _atom_site_hse06_bader_spin_density
 _atom_site_hse06_ddec_charge
 _atom_site_hse06_ddec_spin_density
 _atom_site_hse06_ddec_sum_bond_order
 _atom_site_hse06_magmom
 _atom_site_pbe_bader_spin_density
 _atom_site_pbe_cm5_charge
 _atom_site_pbe_ddec_charge
 _atom_site_pbe_ddec_spin_density
 _atom_site_pbe_ddec_sum_bond_order
 _atom_site_pbe_magmom
H  H0  1  0.39460088  0.70540844  0.99933249  1  0  0.114777  0  0.936488  0  0  0.132076  0  0.994341  0  0  0.133595  0  0.994886  0  0  0.106081  0.130926  0  0.994107  0
H  H1  1  0.89506589  0.79401026  0.00070091  1  0  0.114738  0  0.937283  0  0  0.131881  0  0.995076  0  0  0.133407  0  0.995675  0  0  0.106206  0.130769  0  0.994804  0
H  H2  1  0.60476625  0.29400560  0.00068782  1  0  0.114975  0  0.9368  0  0  0.131922  0  0.994786  0  0  0.133453  0  0.995377  0  0  0.106183  0.130797  0  0.994518  0
H  H3  1  0.10539941  0.20529041  0.99927725  1  0  0.114923  0  0.936759  0  0  0.132152  0  0.994521  0  0  0.133713  0  0.995007  0  0  0.106125  0.131018  0  0.99428  0
H  H4  1  0.23957208  0.52515437  0.05459463  1  0  0.109102  0  0.93998  0  0  0.120926  0  1.007379  0  0  0.123323  0  1.005924  0  0  0.103025  0.119167  0  1.008549  0
H  H5  1  0.73935327  0.97437972  0.94580262  1  0  0.108859  0  0.939041  0  0  0.120329  0  1.006688  0  0  0.122755  0  1.005229  0  0  0.102732  0.118603  0  1.007818  0
H  H6  1  0.76054582  0.47423525  0.94570760  1  0  0.109049  0  0.939546  0  0  0.12057  0  1.006978  0  0  0.122997  0  1.005529  0  0  0.102779  0.118824  0  1.008116  0
H  H7  1  0.26051125  0.02492071  0.05440595  1  0  0.108951  0  0.939563  0  0  0.120617  0  1.007139  0  0  0.123015  0  1.005682  0  0  0.102868  0.118871  0  1.008299  0
Pb  Pb8  1  0.03564138  0.60015405  0.31083013  1  0  1.438103  0  1.391504  0  0  1.25417  0  1.79727  0  0  1.315901  0  1.750247  0  0  0.665769  1.209423  0  1.83008  0
Pb  Pb9  1  0.53562819  0.90031804  0.68910070  1  0  1.438443  0  1.39106  0  0  1.254462  0  1.796844  0  0  1.316189  0  1.749797  0  0  0.666071  1.209758  0  1.829671  0
Pb  Pb10  1  0.96444466  0.40025687  0.68910123  1  0  1.438282  0  1.390802  0  0  1.25437  0  1.796496  0  0  1.316091  0  1.749456  0  0  0.665992  1.209639  0  1.829386  0
Pb  Pb11  1  0.46446535  0.10020376  0.31083659  1  0  1.438307  0  1.391744  0  0  1.254306  0  1.797616  0  0  1.316027  0  1.750578  0  0  0.665829  1.209567  0  1.830427  0
C  C12  1  0.61236312  0.53169034  0.46860412  1  0  0.548607  0  3.944662  0  0  0.501601  0  4.234016  0  0  0.532889  0  4.227575  0  0  0.212173  0.480263  0  4.237603  0
C  C13  1  0.11230513  0.96859776  0.53131165  1  0  0.548171  0  3.945512  0  0  0.501702  0  4.234197  0  0  0.533103  0  4.227557  0  0  0.212231  0.480336  0  4.237844  0
C  C14  1  0.38779425  0.46867967  0.53132879  1  0  0.548238  0  3.945368  0  0  0.502003  0  4.233665  0  0  0.533409  0  4.227062  0  0  0.212288  0.480623  0  4.2373  0
C  C15  1  0.88770772  0.03155923  0.46861259  1  0  0.548912  0  3.944999  0  0  0.502012  0  4.234216  0  0  0.533386  0  4.227633  0  0  0.212424  0.480658  0  4.23781  0
C  C16  1  0.55695521  0.65080832  0.14164938  1  0  0.746729  0  3.792328  0  0  0.689981  0  4.099524  0  0  0.726159  0  4.090533  0  0  0.22931  0.665256  0  4.104783  0
C  C17  1  0.05672905  0.84922363  0.85833251  1  0  0.745966  0  3.793308  0  0  0.68925  0  4.100187  0  0  0.725413  0  4.091274  0  0  0.229225  0.664562  0  4.105422  0
C  C18  1  0.44303883  0.34935878  0.85838752  1  0  0.746573  0  3.79226  0  0  0.689599  0  4.099518  0  0  0.725786  0  4.09058  0  0  0.229224  0.664876  0  4.104775  0
C  C19  1  0.94314489  0.15065817  0.14164350  1  0  0.747198  0  3.792506  0  0  0.68992  0  4.100384  0  0  0.726086  0  4.091406  0  0  0.229184  0.665206  0  4.105652  0
C  C20  1  0.42745829  0.57678142  0.03730614  1  0  -0.250847  0  3.680863  0  0  -0.29193  0  3.932491  0  0  -0.297312  0  3.940484  0  0  -0.16582  -0.288174  0  3.927023  0
C  C21  1  0.92747204  0.92279940  0.96282312  1  0  -0.249857  0  3.680929  0  0  -0.28974  0  3.931405  0  0  -0.295274  0  3.939566  0  0  -0.165745  -0.286019  0  3.925954  0
C  C22  1  0.57245129  0.42283535  0.96283118  1  0  -0.250651  0  3.680751  0  0  -0.290219  0  3.931241  0  0  -0.295779  0  3.939403  0  0  -0.16569  -0.286445  0  3.925726  0
C  C23  1  0.07257461  0.07667106  0.03723146  1  0  -0.251114  0  3.680759  0  0  -0.291552  0  3.93201  0  0  -0.296946  0  3.939988  0  0  -0.165638  -0.287836  0  3.926625  0
O  O24  1  0.61347757  0.46941963  0.36851061  1  0  -0.665109  0  2.075361  0  0  -0.587035  0  2.316399  0  0  -0.620184  0  2.310494  0  0  -0.27283  -0.563657  0  2.319644  0
O  O25  1  0.11354315  0.03112748  0.63137810  1  0  -0.665231  0  2.075603  0  0  -0.587299  0  2.31648  0  0  -0.620421  0  2.31033  0  0  -0.273072  -0.563927  0  2.319781  0
O  O26  1  0.38660284  0.53104547  0.63140875  1  0  -0.66488  0  2.075051  0  0  -0.587125  0  2.315869  0  0  -0.620203  0  2.30967  0  0  -0.272974  -0.56385  0  2.319392  0
O  O27  1  0.88646407  0.96906744  0.36854899  1  0  -0.665028  0  2.075695  0  0  -0.587018  0  2.31682  0  0  -0.620107  0  2.310643  0  0  -0.272942  -0.563704  0  2.320237  0
O  O28  1  0.77927641  0.63845784  0.51801315  1  0  -0.638224  0  2.066448  0  0  -0.575174  0  2.299333  0  0  -0.605714  0  2.297428  0  0  -0.278334  -0.55372  0  2.299883  0
O  O29  1  0.27911723  0.86164100  0.48190858  1  0  -0.637907  0  2.067045  0  0  -0.575081  0  2.299773  0  0  -0.60559  0  2.29767  0  0  -0.278221  -0.553627  0  2.300359  0
O  O30  1  0.22096732  0.36183481  0.48191860  1  0  -0.638105  0  2.066696  0  0  -0.575308  0  2.29928  0  0  -0.605819  0  2.297195  0  0  -0.278361  -0.553859  0  2.299903  0
O  O31  1  0.72092378  0.13854951  0.51801965  1  0  -0.638299  0  2.066603  0  0  -0.575355  0  2.299598  0  0  -0.605866  0  2.297521  0  0  -0.278344  -0.553901  0  2.300154  0
O  O32  1  0.79000163  0.61863509  0.15048494  1  0  -0.64426  0  1.951734  0  0  -0.5675  0  2.190716  0  0  -0.597851  0  2.180795  0  0  -0.288888  -0.54621  0  2.196829  0
O  O33  1  0.28976736  0.88138938  0.84943095  1  0  -0.644335  0  1.951928  0  0  -0.567454  0  2.190541  0  0  -0.59788  0  2.180833  0  0  -0.289114  -0.546144  0  2.196561  0
O  O34  1  0.21003746  0.38171006  0.84955727  1  0  -0.644452  0  1.95156  0  0  -0.567683  0  2.190553  0  0  -0.598028  0  2.18064  0  0  -0.289139  -0.54637  0  2.196612  0
O  O35  1  0.71007092  0.11867149  0.15047707  1  0  -0.644789  0  1.952432  0  0  -0.567659  0  2.191443  0  0  -0.59807  0  2.18163  0  0  -0.288971  -0.546323  0  2.197473  0
O  O36  1  0.42076005  0.74731097  0.21551873  1  0  -0.759132  0  2.030854  0  0  -0.67785  0  2.292153  0  0  -0.711598  0  2.282171  0  0  -0.310632  -0.654008  0  2.298287  0
O  O37  1  0.92047819  0.75307483  0.78442817  1  0  -0.758812  0  2.031268  0  0  -0.677675  0  2.292592  0  0  -0.711387  0  2.282588  0  0  -0.310412  -0.653857  0  2.298749  0
O  O38  1  0.57921335  0.25309955  0.78444228  1  0  -0.758864  0  2.030176  0  0  -0.67758  0  2.291585  0  0  -0.711318  0  2.281597  0  0  -0.310282  -0.65374  0  2.297731  0
O  O39  1  0.07930753  0.24695789  0.21550919  1  0  -0.759006  0  2.03067  0  0  -0.677611  0  2.292177  0  0  -0.711349  0  2.282201  0  0  -0.31031  -0.653772  0  2.298303  0
