# generated using pymatgen
data_CuH8C6(NCl)2
_symmetry_space_group_name_H-M   'P 1'
_cell_length_a   6.00458259
_cell_length_b   6.71414600
_cell_length_c   10.59507840
_cell_angle_alpha   90.00109475
_cell_angle_beta   89.99947995
_cell_angle_gamma   104.53615030
_symmetry_Int_Tables_number   1
_chemical_formula_structural   CuH8C6(NCl)2
_chemical_formula_sum   'Cu2 H16 C12 N4 Cl4'
_cell_volume   413.47419709
_cell_formula_units_Z   2
loop_
 _symmetry_equiv_pos_site_id
 _symmetry_equiv_pos_as_xyz
  1  'x, y, z'
loop_
 _atom_site_type_symbol
 _atom_site_label
 _atom_site_symmetry_multiplicity
 _atom_site_fract_x
 _atom_site_fract_y
 _atom_site_fract_z
 _atom_site_occupancy
 _atom_site_hle17_ddec_charge
 _atom_site_hle17_ddec_spin_density
 _atom_site_hle17_ddec_sum_bond_order
 _atom_site_hle17_magmom
 _atom_site_hse06_10hf_ddec_charge
 _atom_site_hse06_10hf_ddec_spin_density
 _atom_site_hse06_10hf_ddec_sum_bond_order
 _atom_site_hse06_10hf_magmom
 _atom_site_hse06_ddec_charge
 _atom_site_hse06_ddec_spin_density
 _atom_site_hse06_ddec_sum_bond_order
 _atom_site_hse06_magmom
 _atom_site_pbe_cm5_charge
 _atom_site_pbe_ddec_charge
 _atom_site_pbe_ddec_spin_density
 _atom_site_pbe_ddec_sum_bond_order
 _atom_site_pbe_magmom
Cu  Cu0  1  0.99999402  0.99998402  0.99999716  1  0.741246  0.621561  1.869792  0.425  0.714636  0.714114  2.270686  0.53  0.793315  0.794257  2.206263  0.608  0.629199  0.670343  0.660744  2.313416  0.483
Cu  Cu1  1  0.50001288  0.00002266  0.49999299  1  0.741244  -0.621583  1.869902  -0.425  0.714754  -0.714124  2.270643  -0.53  0.793296  -0.794258  2.206318  -0.608  0.629234  0.670377  -0.660747  2.313351  -0.483
H  H2  1  0.42680726  0.27277330  0.08157307  1  0.126724  -0.000309  0.97276  0.0  0.140597  -0.000236  1.047558  0.0  0.141816  -0.000262  1.047916  0.0  0.088757  0.139537  -0.000174  1.047656  0.0
H  H3  1  0.07319125  0.72723983  0.58157571  1  0.126725  0.000306  0.972726  0.0  0.140616  0.000237  1.047565  0.0  0.141822  0.000262  1.04793  0.0  0.088794  0.139558  0.000174  1.047659  0.0
H  H4  1  0.57316125  0.72720330  0.91843258  1  0.126507  -0.00031  0.972871  0.0  0.140432  -0.000236  1.047662  0.0  0.141653  -0.000263  1.048019  0.0  0.088712  0.139372  -0.000174  1.04776  0.0
H  H5  1  0.92684865  0.27278687  0.41844032  1  0.126591  0.000308  0.97272  0.0  0.140501  0.000237  1.047566  0.0  0.14172  0.000262  1.047922  0.0  0.088743  0.13944  0.000174  1.047659  0.0
H  H6  1  0.26183483  0.26408968  0.21962249  1  0.140445  -0.000206  0.960938  0.0  0.158634  -0.000242  1.026858  0.0  0.160495  -0.000232  1.026541  0.0  0.089519  0.157391  -0.000229  1.027057  0.0
H  H7  1  0.23817108  0.73592154  0.71960636  1  0.140515  0.000203  0.96091  0.0  0.158734  0.000243  1.026786  0.0  0.160597  0.000232  1.026462  0.0  0.08957  0.157494  0.000229  1.026979  0.0
H  H8  1  0.73813098  0.73589468  0.78038883  1  0.140433  -0.000208  0.960987  0.0  0.158595  -0.000242  1.026955  0.0  0.160457  -0.000232  1.026637  0.0  0.089517  0.157357  -0.000229  1.027144  0.0
H  H9  1  0.76187546  0.26408809  0.28038891  1  0.140528  0.000205  0.960862  0.0  0.158651  0.000243  1.026888  0.0  0.160515  0.000232  1.026564  0.0  0.089519  0.157414  0.000228  1.027071  0.0
H  H10  1  0.47014850  0.49776929  0.17895808  1  0.129746  -6.2e-05  0.953043  0.0  0.151028  8.1e-05  1.010545  0.0  0.153198  4.2e-05  1.010548  0.0  0.09044  0.149651  0.000106  1.010316  0.0
H  H11  1  0.02984586  0.50226858  0.67895944  1  0.12976  6e-05  0.95323  0.0  0.151053  -8e-05  1.010716  0.0  0.153222  -4.2e-05  1.01072  0.0  0.090432  0.149674  -0.000105  1.01049  0.0
H  H12  1  0.52981987  0.50221813  0.82104285  1  0.129747  -6.3e-05  0.953082  0.0  0.151106  8.1e-05  1.010496  0.0  0.153277  4.2e-05  1.010508  0.0  0.090495  0.149726  0.000105  1.010274  0.0
H  H13  1  0.97021502  0.49778411  0.32103206  1  0.129658  6.2e-05  0.952994  0.0  0.151013  -8e-05  1.010444  0.0  0.153185  -4.2e-05  1.010452  0.0  0.090438  0.149633  -0.000105  1.010222  0.0
H  H14  1  0.71729842  0.24174425  0.88416264  1  0.107468  0.002147  0.975966  0.003  0.110424  0.001948  1.049229  0.002  0.113897  0.001496  1.045531  0.002  0.107387  0.107848  0.002398  1.052276  0.003
H  H15  1  0.78272285  0.75827713  0.38414636  1  0.107492  -0.002151  0.975682  -0.003  0.11034  -0.001949  1.049089  -0.002  0.113802  -0.001497  1.045404  -0.002  0.107381  0.107763  -0.0024  1.052134  -0.003
H  H16  1  0.28264851  0.75821563  0.11583169  1  0.107346  0.002147  0.975901  0.003  0.110374  0.001948  1.0491  0.002  0.113806  0.001497  1.045442  0.002  0.10737  0.107793  0.002398  1.05216  0.003
H  H17  1  0.21736883  0.24179527  0.61582249  1  0.107417  -0.002145  0.976183  -0.003  0.110436  -0.001946  1.049363  -0.002  0.113893  -0.001494  1.045675  -0.002  0.107447  0.10786  -0.002395  1.052423  -0.003
C  C18  1  0.34137387  0.36544670  0.14130250  1  -0.395423  0.001895  3.693677  0.003  -0.477726  0.001474  3.925327  0.002  -0.482588  0.001039  3.933761  0.002  -0.248432  -0.474086  0.001937  3.919528  0.002
C  C19  1  0.15860515  0.63456546  0.64130458  1  -0.395601  -0.001885  3.693626  -0.002  -0.477941  -0.00148  3.925252  -0.002  -0.482785  -0.00104  3.933696  -0.002  -0.24852  -0.474299  -0.00194  3.919456  -0.002
C  C20  1  0.65858212  0.63452696  0.85869089  1  -0.395255  0.001903  3.693462  0.003  -0.477604  0.001476  3.925088  0.002  -0.482477  0.001041  3.933536  0.002  -0.248485  -0.473969  0.001939  3.9193  0.002
C  C21  1  0.84143204  0.36545201  0.35869447  1  -0.395203  -0.001894  3.693127  -0.003  -0.477569  -0.001479  3.924786  -0.002  -0.482431  -0.001039  3.933226  -0.002  -0.248424  -0.473923  -0.00194  3.918991  -0.002
C  C22  1  0.84418079  0.35838004  0.93553584  1  0.038032  0.00058  3.616368  0.001  0.002389  0.002438  3.867006  0.002  0.007249  0.001099  3.881556  0.001  0.054764  -0.0009  0.00371  3.857938  0.004
C  C23  1  0.65582178  0.64162002  0.43553786  1  0.038445  -0.000564  3.615963  -0.001  0.002923  -0.002439  3.866516  -0.002  0.007791  -0.001096  3.881073  -0.001  0.054896  -0.000375  -0.003708  3.85743  -0.004
C  C24  1  0.15578304  0.64159199  0.06446982  1  0.038482  0.000574  3.616431  0.001  0.002834  0.002438  3.866889  0.002  0.007726  0.001097  3.88146  0.001  0.054886  -0.000463  0.003709  3.857804  0.004
C  C25  1  0.34418825  0.35840704  0.56447346  1  0.038421  -0.000561  3.616334  -0.001  0.002711  -0.00244  3.86685  -0.002  0.007585  -0.001101  3.881395  -0.001  0.054831  -0.000588  -0.003711  3.857777  -0.004
C  C26  1  0.16449727  0.43551561  0.06763711  1  0.282496  0.001913  3.680017  0.002  0.293435  0.003102  3.919952  0.003  0.300078  0.00174  3.940021  0.002  0.132085  0.288965  0.00441  3.906661  0.004
C  C27  1  0.33548894  0.56448333  0.56763269  1  0.282932  -0.001927  3.679984  -0.002  0.29375  -0.003102  3.920144  -0.003  0.300387  -0.001741  3.940215  -0.002  0.13221  0.289266  -0.004409  3.906853  -0.004
C  C28  1  0.83549358  0.56447462  0.93236855  1  0.282903  0.001899  3.679784  0.002  0.293687  0.0031  3.919996  0.003  0.300333  0.001735  3.940071  0.002  0.13228  0.289204  0.004407  3.906707  0.004
C  C29  1  0.66450025  0.43550692  0.43236353  1  0.282351  -0.001899  3.679633  -0.002  0.293172  -0.003096  3.919714  -0.003  0.29982  -0.001735  3.939782  -0.002  0.132096  0.288683  -0.004407  3.906424  -0.004
N  N30  1  0.00489393  0.29690755  0.00174960  1  -0.278151  0.073115  3.343899  0.09  -0.225004  0.056928  3.618187  0.074  -0.249343  0.049685  3.638711  0.067  -0.333679  -0.211135  0.060556  3.606342  0.076
N  N31  1  0.49507829  0.70306323  0.50174392  1  -0.278751  -0.073117  3.344555  -0.09  -0.225651  -0.056924  3.618983  -0.074  -0.24996  -0.049686  3.639487  -0.067  -0.333897  -0.211731  -0.060563  3.607066  -0.076
N  N32  1  0.99508952  0.70306887  0.99825322  1  -0.278636  0.07312  3.344647  0.09  -0.225574  0.056929  3.619209  0.074  -0.24991  0.049689  3.639706  0.067  -0.333948  -0.211673  0.060557  3.607334  0.076
N  N33  1  0.50491603  0.29691615  0.49826268  1  -0.278412  -0.073142  3.344107  -0.09  -0.225182  -0.056934  3.618491  -0.074  -0.249493  -0.049698  3.638978  -0.067  -0.333808  -0.211264  -0.060565  3.606588  -0.076
Cl  Cl34  1  0.28798660  0.06378170  0.85511543  1  -0.522046  0.126598  0.938131  0.144  -0.511124  0.088757  1.216439  0.107  -0.541487  0.074357  1.196708  0.093  -0.295423  -0.492475  0.094846  1.231217  0.111
Cl  Cl35  1  0.21204104  0.93623662  0.35510812  1  -0.52207  -0.126577  0.938231  -0.144  -0.511164  -0.088746  1.216572  -0.107  -0.54149  -0.074348  1.196841  -0.093  -0.295459  -0.492499  -0.094834  1.231338  -0.111
Cl  Cl36  1  0.71201118  0.93618683  0.14488645  1  -0.522065  0.126606  0.93811  0.144  -0.511145  0.088762  1.216407  0.107  -0.541503  0.074362  1.196668  0.093  -0.29545  -0.492498  0.094852  1.231189  0.111
Cl  Cl37  1  0.78796069  0.06379053  0.64489471  1  -0.522043  -0.126599  0.938077  -0.144  -0.511142  -0.088759  1.216335  -0.107  -0.54147  -0.074358  1.196619  -0.093  -0.295477  -0.492474  -0.094845  1.231094  -0.111
