# generated using pymatgen
data_AgH4C4N3O2
_symmetry_space_group_name_H-M   'P 1'
_cell_length_a   5.70133987
_cell_length_b   7.32881782
_cell_length_c   7.28680963
_cell_angle_alpha   90.00969658
_cell_angle_beta   89.98629765
_cell_angle_gamma   101.96449449
_symmetry_Int_Tables_number   1
_chemical_formula_structural   AgH4C4N3O2
_chemical_formula_sum   'Ag2 H8 C8 N6 O4'
_cell_volume   297.85834790
_cell_formula_units_Z   2
loop_
 _symmetry_equiv_pos_site_id
 _symmetry_equiv_pos_as_xyz
  1  'x, y, z'
loop_
 _atom_site_type_symbol
 _atom_site_label
 _atom_site_symmetry_multiplicity
 _atom_site_fract_x
 _atom_site_fract_y
 _atom_site_fract_z
 _atom_site_occupancy
 _atom_site_hle17_bader_spin_density
 _atom_site_hle17_ddec_charge
 _atom_site_hle17_ddec_spin_density
 _atom_site_hle17_ddec_sum_bond_order
 _atom_site_hle17_magmom
 _atom_site_hse06_10hf_bader_spin_density
 _atom_site_hse06_10hf_ddec_charge
 _atom_site_hse06_10hf_ddec_spin_density
 _atom_site_hse06_10hf_ddec_sum_bond_order
 _atom_site_hse06_10hf_magmom
 _atom_site_hse06_bader_spin_density
 _atom_site_hse06_ddec_charge
 _atom_site_hse06_ddec_spin_density
 _atom_site_hse06_ddec_sum_bond_order
 _atom_site_hse06_magmom
 _atom_site_pbe_bader_spin_density
 _atom_site_pbe_cm5_charge
 _atom_site_pbe_ddec_charge
 _atom_site_pbe_ddec_spin_density
 _atom_site_pbe_ddec_sum_bond_order
 _atom_site_pbe_magmom
Ag  Ag0  1  0.43716970  0.73399995  0.75001383  1  0  0.436129  0  1.490146  0  0  0.282744  0  1.930895  0  0  0.308951  0  1.890488  0  0  0.44804  0.267046  0  1.958344  0
Ag  Ag1  1  0.56286078  0.26597950  0.24996485  1  0  0.436165  0  1.49043  0  0  0.282873  0  1.931127  0  0  0.309059  0  1.890723  0  0  0.448184  0.267193  0  1.958573  0
H  H2  1  0.18409497  0.89867764  0.07812420  1  0  0.097368  0  0.949454  0  0  0.099136  0  1.021477  0  0  0.102312  0  1.019108  0  0  0.117316  0.096688  0  1.02363  0
H  H3  1  0.81571328  0.10143545  0.57798111  1  0  0.097217  0  0.950292  0  0  0.098972  0  1.022241  0  0  0.102144  0  1.019872  0  0  0.117395  0.096541  0  1.024365  0
H  H4  1  0.81590731  0.10135021  0.92182567  1  0  0.097672  0  0.949365  0  0  0.099404  0  1.021418  0  0  0.102579  0  1.019051  0  0  0.117381  0.096953  0  1.02358  0
H  H5  1  0.18420566  0.89857489  0.42200307  1  0  0.09711  0  0.950042  0  0  0.09885  0  1.022051  0  0  0.102016  0  1.019694  0  0  0.117328  0.096422  0  1.024165  0
H  H6  1  0.76554698  0.63553482  0.07785885  1  0  0.09569  0  0.952753  0  0  0.098136  0  1.024149  0  0  0.101621  0  1.02112  0  0  0.117272  0.095442  0  1.026772  0
H  H7  1  0.23433489  0.36454282  0.57784847  1  0  0.095731  0  0.952366  0  0  0.098475  0  1.023463  0  0  0.101966  0  1.020433  0  0  0.117317  0.09579  0  1.02608  0
H  H8  1  0.23449578  0.36445867  0.92215551  1  0  0.095756  0  0.952878  0  0  0.098157  0  1.024263  0  0  0.101644  0  1.021233  0  0  0.117328  0.095469  0  1.026876  0
H  H9  1  0.76565411  0.63541814  0.42216864  1  0  0.095684  0  0.952303  0  0  0.098459  0  1.023307  0  0  0.101951  0  1.020278  0  0  0.117342  0.095773  0  1.025915  0
C  C10  1  0.31403298  0.83869870  0.15437613  1  0  0.08417  0  3.663849  0  0  0.054308  0  3.923914  0  0  0.059051  0  3.935295  0  0  0.049677  0.050323  0  3.918065  0
C  C11  1  0.68595556  0.16133184  0.65447090  1  0  0.083669  0  3.664983  0  0  0.053874  0  3.924863  0  0  0.058612  0  3.936252  0  0  0.049533  0.049906  0  3.918993  0
C  C12  1  0.68592183  0.16131478  0.84565746  1  0  0.083747  0  3.663846  0  0  0.054012  0  3.923755  0  0  0.058752  0  3.935138  0  0  0.049629  0.05003  0  3.917909  0
C  C13  1  0.31403968  0.83868900  0.34555033  1  0  0.083685  0  3.664855  0  0  0.053893  0  3.924811  0  0  0.058628  0  3.936207  0  0  0.049516  0.049928  0  3.91893  0
C  C14  1  0.63369285  0.69312190  0.15458741  1  0  0.076462  0  3.662252  0  0  0.049684  0  3.916239  0  0  0.053088  0  3.930274  0  0  0.046097  0.046406  0  3.90906  0
C  C15  1  0.36636708  0.30690657  0.65433235  1  0  0.076086  0  3.663054  0  0  0.049033  0  3.916995  0  0  0.052426  0  3.931038  0  0  0.045746  0.045657  0  3.90999  0
C  C16  1  0.36636004  0.30691898  0.84539539  1  0  0.076158  0  3.662761  0  0  0.049573  0  3.916718  0  0  0.05297  0  3.930755  0  0  0.045974  0.046275  0  3.90958  0
C  C17  1  0.63367638  0.69309665  0.34565869  1  0  0.075961  0  3.66282  0  0  0.048998  0  3.916703  0  0  0.052393  0  3.93074  0  0  0.045653  0.045613  0  3.909711  0
N  N18  1  0.47371998  0.76581635  0.05834574  1  0  -0.239182  0  3.273076  0  0  -0.167477  0  3.551439  0  0  -0.179175  0  3.564316  0  0  -0.32269  -0.160346  0  3.544065  0
N  N19  1  0.52648294  0.23418151  0.55824292  1  0  -0.23866  0  3.274574  0  0  -0.166894  0  3.552957  0  0  -0.178575  0  3.565824  0  0  -0.322682  -0.159758  0  3.545572  0
N  N20  1  0.52628716  0.23424495  0.94168373  1  0  -0.238931  0  3.273501  0  0  -0.167407  0  3.551943  0  0  -0.1791  0  3.564828  0  0  -0.322812  -0.160278  0  3.544575  0
N  N21  1  0.47353450  0.76581590  0.44172753  1  0  -0.238587  0  3.274369  0  0  -0.16684  0  3.55271  0  0  -0.178536  0  3.565591  0  0  -0.322619  -0.159693  0  3.54531  0
N  N22  1  0.89741797  0.71375278  0.75007111  1  0  0.195312  0  3.364698  0  0  0.212465  0  3.698726  0  0  0.230123  0  3.700499  0  0  -0.076228  0.201727  0  3.695235  0
N  N23  1  0.10257981  0.28621521  0.24992816  1  0  0.195607  0  3.363882  0  0  0.212611  0  3.698129  0  0  0.230273  0  3.6999  0  0  -0.076061  0.201869  0  3.694643  0
O  O24  1  0.03901739  0.87159023  0.75006158  1  0  -0.435606  0  1.923147  0  0  -0.386006  0  2.172264  0  0  -0.410642  0  2.170949  0  0  -0.193538  -0.36771  0  2.171386  0
O  O25  1  0.96095012  0.12838304  0.25003376  1  0  -0.435876  0  1.922714  0  0  -0.386163  0  2.171799  0  0  -0.410804  0  2.170484  0  0  -0.193746  -0.367861  0  2.17092  0
O  O26  1  0.99220258  0.57198828  0.74997000  1  0  -0.424202  0  1.935806  0  0  -0.376412  0  2.193614  0  0  -0.401843  0  2.192485  0  0  -0.193159  -0.35767  0  2.192853  0
O  O27  1  0.00779523  0.42797275  0.24995654  1  0  -0.424336  0  1.93588  0  0  -0.37646  0  2.193624  0  0  -0.401883  0  2.192489  0  0  -0.193191  -0.357735  0  2.192892  0
