# generated using pymatgen
data_Ba2ZnH14(C3O8)2
_symmetry_space_group_name_H-M   'P 1'
_cell_length_a   6.88897867
_cell_length_b   7.19107812
_cell_length_c   8.95993663
_cell_angle_alpha   82.21129114
_cell_angle_beta   71.35206166
_cell_angle_gamma   79.93690109
_symmetry_Int_Tables_number   1
_chemical_formula_structural   Ba2ZnH14(C3O8)2
_chemical_formula_sum   'Ba2 Zn1 H14 C6 O16'
_cell_volume   412.58346950
_cell_formula_units_Z   1
loop_
 _symmetry_equiv_pos_site_id
 _symmetry_equiv_pos_as_xyz
  1  'x, y, z'
loop_
 _atom_site_type_symbol
 _atom_site_label
 _atom_site_symmetry_multiplicity
 _atom_site_fract_x
 _atom_site_fract_y
 _atom_site_fract_z
 _atom_site_occupancy
 _atom_site_hle17_bader_spin_density
 _atom_site_hle17_ddec_charge
 _atom_site_hle17_ddec_spin_density
 _atom_site_hle17_ddec_sum_bond_order
 _atom_site_hle17_magmom
 _atom_site_hse06_10hf_bader_spin_density
 _atom_site_hse06_10hf_ddec_charge
 _atom_site_hse06_10hf_ddec_spin_density
 _atom_site_hse06_10hf_ddec_sum_bond_order
 _atom_site_hse06_10hf_magmom
 _atom_site_hse06_bader_spin_density
 _atom_site_hse06_ddec_charge
 _atom_site_hse06_ddec_spin_density
 _atom_site_hse06_ddec_sum_bond_order
 _atom_site_hse06_magmom
 _atom_site_pbe_bader_spin_density
 _atom_site_pbe_cm5_charge
 _atom_site_pbe_ddec_charge
 _atom_site_pbe_ddec_spin_density
 _atom_site_pbe_ddec_sum_bond_order
 _atom_site_pbe_magmom
Ba  Ba0  1  0.09268580  0.73301671  0.35824310  1  0  1.652409  0  1.136008  0  0  1.504842  0  1.532097  0  0  1.545806  0  1.487293  0  0  0.912025  1.474354  0  1.564018  0
Ba  Ba1  1  0.90731377  0.26698328  0.64175821  1  0  1.652412  0  1.136011  0  0  1.504853  0  1.532085  0  0  1.545818  0  1.487287  0  0  0.912029  1.474365  0  1.564008  0
Zn  Zn2  1  0.99999860  0.99999860  0.00000058  1  0  1.103662  0  1.829194  0  0  0.949522  0  2.272038  0  0  1.000441  0  2.214679  0  0  0.68033  0.913427  0  2.311376  0
H  H3  1  0.59221386  0.88666705  0.07277745  1  0  0.000452  0  0.941779  0  0  0.008645  0  1.018316  0  0  0.009008  0  1.013719  0  0  0.112687  0.008321  0  1.021441  0
H  H4  1  0.40778703  0.11333435  0.92722450  1  0  0.000438  0  0.941792  0  0  0.008634  0  1.018328  0  0  0.008996  0  1.013732  0  0  0.11269  0.008313  0  1.021453  0
H  H5  1  0.03135404  0.36652096  0.09213179  1  0  0.000637  0  0.929426  0  0  0.010738  0  1.000656  0  0  0.011492  0  0.99532  0  0  0.112954  0.009776  0  1.004722  0
H  H6  1  0.96864727  0.63347761  0.90786925  1  0  0.000639  0  0.929394  0  0  0.010736  0  1.000633  0  0  0.011491  0  0.995297  0  0  0.112971  0.009775  0  1.004699  0
H  H7  1  0.47335617  0.38490567  0.11487815  1  0  0.001407  0  0.926103  0  0  0.011211  0  1.001276  0  0  0.01129  0  0.996747  0  0  0.116802  0.010807  0  1.004651  0
H  H8  1  0.52664644  0.61509432  0.88511794  1  0  0.001419  0  0.926082  0  0  0.011221  0  1.001259  0  0  0.011302  0  0.996724  0  0  0.116801  0.010817  0  1.00464  0
H  H9  1  0.34899449  0.05130289  0.42475550  1  0  0.424848  0  0.867189  0  0  0.396055  0  0.930536  0  0  0.405572  0  0.916527  0  0  0.314153  0.389287  0  0.940497  0
H  H10  1  0.65100465  0.94869994  0.57524450  1  0  0.424826  0  0.867208  0  0  0.39603  0  0.930574  0  0  0.405549  0  0.916563  0  0  0.314129  0.38926  0  0.940539  0
H  H11  1  0.30241735  0.92673706  0.59019895  1  0  0.434551  0  0.863445  0  0  0.401573  0  0.929924  0  0  0.412393  0  0.914133  0  0  0.306759  0.393955  0  0.941026  0
H  H12  1  0.69758200  0.07326436  0.40980115  1  0  0.434547  0  0.863444  0  0  0.401564  0  0.92993  0  0  0.412383  0  0.914142  0  0  0.306758  0.393951  0  0.941027  0
H  H13  1  0.39128068  0.34813975  0.42027243  1  0  0.409255  0  0.900903  0  0  0.378962  0  0.96498  0  0  0.389848  0  0.948964  0  0  0.298777  0.37115  0  0.976488  0
H  H14  1  0.60872021  0.65186165  0.57972729  1  0  0.409237  0  0.900935  0  0  0.378972  0  0.964972  0  0  0.389859  0  0.948955  0  0  0.298785  0.371154  0  0.976488  0
H  H15  1  0.35699899  0.40265792  0.59267304  1  0  0.424097  0  0.878463  0  0  0.394419  0  0.940362  0  0  0.405999  0  0.923354  0  0  0.300371  0.386108  0  0.95254  0
H  H16  1  0.64300189  0.59734349  0.40732668  1  0  0.42411  0  0.878445  0  0  0.394435  0  0.94034  0  0  0.406014  0  0.923332  0  0  0.300377  0.386124  0  0.952518  0
C  C17  1  0.64982053  0.79312326  0.16323541  1  0  0.596953  0  3.907762  0  0  0.521781  0  4.217947  0  0  0.55543  0  4.210128  0  0  0.158019  0.498978  0  4.22256  0
C  C18  1  0.35018057  0.20687672  0.83676664  1  0  0.59699  0  3.907707  0  0  0.521821  0  4.217888  0  0  0.555473  0  4.210063  0  0  0.158068  0.499015  0  4.222504  0
C  C19  1  0.05948235  0.27359400  0.19494596  1  0  0.611882  0  3.896221  0  0  0.540061  0  4.201991  0  0  0.573594  0  4.194015  0  0  0.165602  0.517434  0  4.206736  0
C  C20  1  0.94051588  0.72640459  0.80505472  1  0  0.611906  0  3.896205  0  0  0.540086  0  4.201982  0  0  0.573616  0  4.194005  0  0  0.165607  0.517458  0  4.206729  0
C  C21  1  0.59169676  0.26714856  0.13615259  1  0  0.605775  0  3.888362  0  0  0.526663  0  4.206978  0  0  0.559812  0  4.199209  0  0  0.162137  0.504417  0  4.21129  0
C  C22  1  0.40830412  0.73285285  0.86384601  1  0  0.605764  0  3.888272  0  0  0.526671  0  4.206876  0  0  0.559825  0  4.199107  0  0  0.162132  0.504411  0  4.211194  0
O  O23  1  0.83289737  0.80432421  0.16357661  1  0  -0.669658  0  2.16408  0  0  -0.594983  0  2.442129  0  0  -0.625016  0  2.429988  0  0  -0.355542  -0.573793  0  2.449693  0
O  O24  1  0.16710394  0.19567436  0.83642442  1  0  -0.669653  0  2.163997  0  0  -0.594992  0  2.442049  0  0  -0.625024  0  2.429909  0  0  -0.355555  -0.573809  0  2.449634  0
O  O25  1  0.53233582  0.68387081  0.25659008  1  0  -0.632188  0  2.050533  0  0  -0.567178  0  2.290769  0  0  -0.59356  0  2.281924  0  0  -0.336936  -0.548656  0  2.296303  0
O  O26  1  0.46766067  0.31612921  0.74341088  1  0  -0.632206  0  2.050525  0  0  -0.567196  0  2.290757  0  0  -0.593577  0  2.28191  0  0  -0.336982  -0.548678  0  2.296303  0
O  O27  1  0.07163090  0.35047416  0.30879114  1  0  -0.659627  0  2.046234  0  0  -0.589762  0  2.296069  0  0  -0.617243  0  2.288997  0  0  -0.36475  -0.570562  0  2.300293  0
O  O28  1  0.92836427  0.64952444  0.69121141  1  0  -0.659661  0  2.046236  0  0  -0.589795  0  2.29608  0  0  -0.617273  0  2.289006  0  0  -0.364781  -0.570596  0  2.300306  0
O  O29  1  0.07835205  0.09466981  0.18593616  1  0  -0.670513  0  2.110323  0  0  -0.594753  0  2.381291  0  0  -0.625286  0  2.370799  0  0  -0.348879  -0.573377  0  2.387477  0
O  O30  1  0.92164771  0.90532877  0.81406413  1  0  -0.670526  0  2.110366  0  0  -0.594762  0  2.381324  0  0  -0.62531  0  2.370865  0  0  -0.348885  -0.57338  0  2.387495  0
O  O31  1  0.73925898  0.21807616  0.01465314  1  0  -0.646907  0  2.100665  0  0  -0.580759  0  2.381699  0  0  -0.610017  0  2.370771  0  0  -0.316793  -0.56007  0  2.388017  0
O  O32  1  0.26074189  0.78192526  0.98534435  1  0  -0.646896  0  2.100585  0  0  -0.580766  0  2.381643  0  0  -0.610011  0  2.37068  0  0  -0.316804  -0.56008  0  2.387973  0
O  O33  1  0.56479719  0.19671064  0.27797714  1  0  -0.625764  0  2.057732  0  0  -0.549123  0  2.277485  0  0  -0.574776  0  2.267287  0  0  -0.298601  -0.531311  0  2.284048  0
O  O34  1  0.43520543  0.80328934  0.72202007  1  0  -0.625749  0  2.057697  0  0  -0.54916  0  2.27747  0  0  -0.574817  0  2.267272  0  0  -0.29858  -0.531308  0  2.284006  0
O  O35  1  0.24398811  0.98334421  0.50361191  1  0  -0.892642  0  1.848848  0  0  -0.83497  0  2.040991  0  0  -0.855401  0  2.010572  0  0  -0.628998  -0.820398  0  2.062238  0
O  O36  1  0.75601452  0.01665576  0.49638865  1  0  -0.892604  0  1.848828  0  0  -0.834939  0  2.040998  0  0  -0.855363  0  2.010566  0  0  -0.628978  -0.820367  0  2.062242  0
O  O37  1  0.29099686  0.41990775  0.50664336  1  0  -0.916808  0  1.909465  0  0  -0.858168  0  2.098343  0  0  -0.879156  0  2.066283  0  0  -0.649941  -0.843124  0  2.121049  0
O  O38  1  0.70900424  0.58009223  0.49335646  1  0  -0.916815  0  1.909498  0  0  -0.858191  0  2.098332  0  0  -0.879178  0  2.06627  0  0  -0.649958  -0.843149  0  2.121047  0
