# generated using pymatgen
data_UH6(CO2)4
_symmetry_space_group_name_H-M   'P 1'
_cell_length_a   5.48717251
_cell_length_b   7.49587741
_cell_length_c   9.78347200
_cell_angle_alpha   89.99912630
_cell_angle_beta   91.02975995
_cell_angle_gamma   89.99989358
_symmetry_Int_Tables_number   1
_chemical_formula_structural   UH6(CO2)4
_chemical_formula_sum   'U2 H12 C8 O16'
_cell_volume   402.34068362
_cell_formula_units_Z   2
loop_
 _symmetry_equiv_pos_site_id
 _symmetry_equiv_pos_as_xyz
  1  'x, y, z'
loop_
 _atom_site_type_symbol
 _atom_site_label
 _atom_site_symmetry_multiplicity
 _atom_site_fract_x
 _atom_site_fract_y
 _atom_site_fract_z
 _atom_site_occupancy
 _atom_site_hle17_bader_spin_density
 _atom_site_hle17_ddec_charge
 _atom_site_hle17_ddec_spin_density
 _atom_site_hle17_ddec_sum_bond_order
 _atom_site_hle17_magmom
 _atom_site_hse06_10hf_bader_spin_density
 _atom_site_hse06_10hf_ddec_charge
 _atom_site_hse06_10hf_ddec_spin_density
 _atom_site_hse06_10hf_ddec_sum_bond_order
 _atom_site_hse06_10hf_magmom
 _atom_site_hse06_bader_spin_density
 _atom_site_hse06_ddec_charge
 _atom_site_hse06_ddec_spin_density
 _atom_site_hse06_ddec_sum_bond_order
 _atom_site_hse06_magmom
 _atom_site_pbe_bader_spin_density
 _atom_site_pbe_cm5_charge
 _atom_site_pbe_ddec_charge
 _atom_site_pbe_ddec_spin_density
 _atom_site_pbe_ddec_sum_bond_order
 _atom_site_pbe_magmom
U  U0  1  0.99998858  0.99999833  0.00001186  1  0  2.452857  0  4.055609  0  0  2.501381  0  4.696049  0  0  2.604067  0  4.667964  0  0  2.171075  2.429191  0  4.717126  0
U  U1  1  0.50002017  0.50000946  0.49999221  1  0  2.452893  0  4.055748  0  0  2.501384  0  4.696099  0  0  2.604071  0  4.668029  0  0  2.171098  2.429271  0  4.717079  0
H  H2  1  0.72141079  0.15908341  0.74791944  1  0  0.451811  0  0.83863  0  0  0.428282  0  0.890022  0  0  0.440099  0  0.873008  0  0  0.315147  0.419845  0  0.902158  0
H  H3  1  0.77859237  0.65908217  0.75207473  1  0  0.45177  0  0.838702  0  0  0.428253  0  0.890065  0  0  0.440077  0  0.873044  0  0  0.315156  0.419822  0  0.902193  0
H  H4  1  0.27859664  0.84092084  0.25209517  1  0  0.45171  0  0.838774  0  0  0.428157  0  0.890188  0  0  0.440003  0  0.873135  0  0  0.315123  0.419721  0  0.90232  0
H  H5  1  0.22141148  0.34091808  0.24790897  1  0  0.451749  0  0.838708  0  0  0.428278  0  0.890004  0  0  0.440098  0  0.872988  0  0  0.315143  0.419842  0  0.902138  0
H  H6  1  0.54226506  0.01787719  0.81963755  1  0  0.459435  0  0.81451  0  0  0.439322  0  0.863877  0  0  0.450444  0  0.847434  0  0  0.322447  0.431407  0  0.875605  0
H  H7  1  0.95773438  0.51787982  0.68036215  1  0  0.459455  0  0.814517  0  0  0.43933  0  0.863873  0  0  0.45045  0  0.847433  0  0  0.322468  0.431414  0  0.875601  0
H  H8  1  0.45773417  0.98211905  0.18035412  1  0  0.459431  0  0.814403  0  0  0.439309  0  0.863882  0  0  0.450432  0  0.847437  0  0  0.322465  0.431384  0  0.875621  0
H  H9  1  0.04225597  0.48212843  0.31964242  1  0  0.459431  0  0.814299  0  0  0.439309  0  0.863861  0  0  0.450433  0  0.847413  0  0  0.322444  0.431392  0  0.875591  0
H  H10  1  0.65375984  0.40909660  0.11481076  1  0  0.141573  0  0.925574  0  0  0.147941  0  0.985139  0  0  0.1521  0  0.982596  0  0  0.130381  0.145022  0  0.987297  0
H  H11  1  0.84623792  0.90910459  0.38518152  1  0  0.141556  0  0.92567  0  0  0.147902  0  0.985296  0  0  0.152068  0  0.982747  0  0  0.130407  0.144986  0  0.987449  0
H  H12  1  0.34623975  0.59087830  0.88517785  1  0  0.141543  0  0.925626  0  0  0.147887  0  0.985243  0  0  0.152047  0  0.982697  0  0  0.130378  0.14497  0  0.987406  0
H  H13  1  0.15373449  0.09089566  0.61482013  1  0  0.141637  0  0.925614  0  0  0.147992  0  0.985175  0  0  0.152152  0  0.98263  0  0  0.130397  0.145077  0  0.987334  0
C  C14  1  0.77224190  0.65611065  0.01408478  1  0  0.669856  0  3.874938  0  0  0.627603  0  4.17897  0  0  0.664216  0  4.171096  0  0  0.213159  0.602745  0  4.183024  0
C  C15  1  0.72775928  0.15610975  0.48590338  1  0  0.669941  0  3.875047  0  0  0.627643  0  4.179103  0  0  0.664267  0  4.171242  0  0  0.213278  0.60278  0  4.183163  0
C  C16  1  0.22775659  0.34387892  0.98591300  1  0  0.669852  0  3.875185  0  0  0.627607  0  4.179185  0  0  0.664222  0  4.171319  0  0  0.213201  0.602748  0  4.183239  0
C  C17  1  0.27225363  0.84388783  0.51409612  1  0  0.669689  0  3.875081  0  0  0.627429  0  4.179072  0  0  0.664045  0  4.171206  0  0  0.21321  0.60257  0  4.183134  0
C  C18  1  0.60501838  0.50609608  0.03596376  1  0  -0.12256  0  3.585603  0  0  -0.144135  0  3.840494  0  0  -0.148683  0  3.852086  0  0  -0.050909  -0.141547  0  3.833454  0
C  C19  1  0.89496725  0.00610874  0.46402229  1  0  -0.122273  0  3.585622  0  0  -0.14391  0  3.840598  0  0  -0.148473  0  3.852196  0  0  -0.050864  -0.141313  0  3.833552  0
C  C20  1  0.39497456  0.49387882  0.96401941  1  0  -0.12212  0  3.58574  0  0  -0.143707  0  3.840588  0  0  -0.148263  0  3.852194  0  0  -0.050762  -0.141117  0  3.833545  0
C  C21  1  0.10501463  0.99389685  0.53597674  1  0  -0.122379  0  3.585407  0  0  -0.143926  0  3.840268  0  0  -0.148471  0  3.851871  0  0  -0.050861  -0.14134  0  3.83323  0
O  O22  1  0.22106430  0.93920598  0.87243131  1  0  -0.710029  0  1.610917  0  0  -0.718003  0  1.908512  0  0  -0.739355  0  1.8969  0  0  -0.748154  -0.704973  0  1.917417  0
O  O23  1  0.27894286  0.43921224  0.62756941  1  0  -0.710071  0  1.610987  0  0  -0.718008  0  1.908563  0  0  -0.739362  0  1.896949  0  0  -0.748172  -0.705003  0  1.91746  0
O  O24  1  0.77891693  0.06078626  0.12758819  1  0  -0.709974  0  1.611256  0  0  -0.717958  0  1.908873  0  0  -0.739303  0  1.897255  0  0  -0.748155  -0.704931  0  1.917779  0
O  O25  1  0.72109372  0.56079601  0.37241586  1  0  -0.709968  0  1.611252  0  0  -0.717938  0  1.908868  0  0  -0.73929  0  1.897255  0  0  -0.748178  -0.704931  0  1.917764  0
O  O26  1  0.94016739  0.69402517  0.10058371  1  0  -0.589498  0  1.933373  0  0  -0.562329  0  2.177221  0  0  -0.593891  0  2.173118  0  0  -0.318019  -0.539718  0  2.178967  0
O  O27  1  0.55983294  0.19404225  0.39941012  1  0  -0.589555  0  1.933487  0  0  -0.562322  0  2.177269  0  0  -0.593875  0  2.173131  0  0  -0.3181  -0.539719  0  2.179015  0
O  O28  1  0.05982296  0.30595506  0.89942085  1  0  -0.58961  0  1.933586  0  0  -0.562368  0  2.177309  0  0  -0.593933  0  2.173194  0  0  -0.318083  -0.539755  0  2.179053  0
O  O29  1  0.44018530  0.80598201  0.60059066  1  0  -0.589428  0  1.933201  0  0  -0.562383  0  2.177184  0  0  -0.593942  0  2.173068  0  0  -0.318134  -0.539784  0  2.178935  0
O  O30  1  0.74441739  0.75764280  0.90796775  1  0  -0.662803  0  2.047061  0  0  -0.628763  0  2.293487  0  0  -0.662188  0  2.288255  0  0  -0.34278  -0.604695  0  2.295883  0
O  O31  1  0.75558123  0.25765114  0.59203019  1  0  -0.662967  0  2.04699  0  0  -0.628855  0  2.293399  0  0  -0.662286  0  2.288146  0  0  -0.342837  -0.604791  0  2.295797  0
O  O32  1  0.25556713  0.24235345  0.09203960  1  0  -0.662778  0  2.046975  0  0  -0.628778  0  2.293413  0  0  -0.662197  0  2.288174  0  0  -0.342809  -0.604711  0  2.295812  0
O  O33  1  0.24444247  0.74236778  0.40797085  1  0  -0.66287  0  2.047392  0  0  -0.628639  0  2.293638  0  0  -0.662094  0  2.288437  0  0  -0.342752  -0.604577  0  2.296028  0
O  O34  1  0.68593763  0.09456177  0.83407734  1  0  -0.86436  0  1.886127  0  0  -0.840793  0  2.076005  0  0  -0.864946  0  2.046325  0  0  -0.606847  -0.822862  0  2.09651  0
O  O35  1  0.81406643  0.59455955  0.66592682  1  0  -0.864323  0  1.88624  0  0  -0.840725  0  2.076115  0  0  -0.864891  0  2.04642  0  0  -0.606859  -0.822806  0  2.096614  0
O  O36  1  0.31404314  0.90543981  0.16593086  1  0  -0.864307  0  1.88615  0  0  -0.840673  0  2.076099  0  0  -0.864895  0  2.046451  0  0  -0.60686  -0.822737  0  2.096622  0
O  O37  1  0.18596636  0.40545537  0.33407466  1  0  -0.864315  0  1.885932  0  0  -0.840796  0  2.075937  0  0  -0.864952  0  2.046238  0  0  -0.606842  -0.822877  0  2.096437  0
