# generated using pymatgen
data_CuH4C6INClO2
_symmetry_space_group_name_H-M   'P 1'
_cell_length_a   4.08029660
_cell_length_b   6.67503005
_cell_length_c   15.88263248
_cell_angle_alpha   94.98858318
_cell_angle_beta   91.99887646
_cell_angle_gamma   96.73739455
_symmetry_Int_Tables_number   1
_chemical_formula_structural   CuH4C6INClO2
_chemical_formula_sum   'Cu2 H8 C12 I2 N2 Cl2 O4'
_cell_volume   427.52189564
_cell_formula_units_Z   2
loop_
 _symmetry_equiv_pos_site_id
 _symmetry_equiv_pos_as_xyz
  1  'x, y, z'
loop_
 _atom_site_type_symbol
 _atom_site_label
 _atom_site_symmetry_multiplicity
 _atom_site_fract_x
 _atom_site_fract_y
 _atom_site_fract_z
 _atom_site_occupancy
 _atom_site_hle17_bader_spin_density
 _atom_site_hle17_ddec_charge
 _atom_site_hle17_ddec_spin_density
 _atom_site_hle17_ddec_sum_bond_order
 _atom_site_hle17_magmom
 _atom_site_hse06_10hf_bader_spin_density
 _atom_site_hse06_10hf_ddec_charge
 _atom_site_hse06_10hf_ddec_spin_density
 _atom_site_hse06_10hf_ddec_sum_bond_order
 _atom_site_hse06_10hf_magmom
 _atom_site_hse06_bader_spin_density
 _atom_site_hse06_ddec_charge
 _atom_site_hse06_ddec_spin_density
 _atom_site_hse06_ddec_sum_bond_order
 _atom_site_hse06_magmom
 _atom_site_pbe_bader_spin_density
 _atom_site_pbe_cm5_charge
 _atom_site_pbe_ddec_charge
 _atom_site_pbe_ddec_spin_density
 _atom_site_pbe_ddec_sum_bond_order
 _atom_site_pbe_magmom
Cu  Cu0  1  0.24527696  0.98260356  0.94496679  1  0  0.22528  0  2.246406  0  0  0.149515  0  2.731002  0  0  0.160453  0  2.675397  0  0  0.245255  0.144687  0  2.767391  0
Cu  Cu1  1  0.75465757  0.01740607  0.05503554  1  0  0.225329  0  2.246308  0  0  0.149511  0  2.730948  0  0  0.16054  0  2.675329  0  0  0.245239  0.144679  0  2.767332  0
H  H2  1  0.03145110  0.36277025  0.89148224  1  0  0.082839  0  0.972705  0  0  0.08818  0  1.044249  0  0  0.092256  0  1.040482  0  0  0.093944  0.084631  0  1.047835  0
H  H3  1  0.96851925  0.63724582  0.10851129  1  0  0.082866  0  0.972526  0  0  0.088228  0  1.044036  0  0  0.092304  0  1.04027  0  0  0.093969  0.084677  0  1.047622  0
H  H4  1  0.94311252  0.51436496  0.75605266  1  0  0.117114  0  0.947385  0  0  0.125329  0  1.010453  0  0  0.129053  0  1.008587  0  0  0.10526  0.122454  0  1.012231  0
H  H5  1  0.05688615  0.48563168  0.24393407  1  0  0.117028  0  0.947308  0  0  0.125282  0  1.01036  0  0  0.128989  0  1.008514  0  0  0.105261  0.122433  0  1.012115  0
H  H6  1  0.45083002  0.88714004  0.76907424  1  0  0.091133  0  0.951215  0  0  0.094397  0  1.023618  0  0  0.098352  0  1.020391  0  0  0.103571  0.091479  0  1.026079  0
H  H7  1  0.54915582  0.11285726  0.23093820  1  0  0.09115  0  0.951168  0  0  0.094416  0  1.023541  0  0  0.098374  0  1.020309  0  0  0.10358  0.091497  0  1.026006  0
H  H8  1  0.86499394  0.58217872  0.55251318  1  0  0.403262  0  0.883843  0  0  0.369632  0  0.966333  0  0  0.382774  0  0.952105  0  0  0.301492  0.360475  0  0.976128  0
H  H9  1  0.13506194  0.41783597  0.44748247  1  0  0.403378  0  0.883973  0  0  0.369836  0  0.966321  0  0  0.382971  0  0.952097  0  0  0.301555  0.360678  0  0.976126  0
C  C10  1  0.10538242  0.29158308  0.83186990  1  0  0.11972  0  3.659775  0  0  0.088023  0  3.913032  0  0  0.094512  0  3.926917  0  0  0.031629  0.083306  0  3.905074  0
C  C11  1  0.89458120  0.70841157  0.16812896  1  0  0.11976  0  3.659517  0  0  0.088079  0  3.912727  0  0  0.094585  0  3.926621  0  0  0.031663  0.083364  0  3.904773  0
C  C12  1  0.05771934  0.37518207  0.75616659  1  0  -0.09248  0  3.688705  0  0  -0.116417  0  3.940687  0  0  -0.119873  0  3.959898  0  0  -0.078565  -0.114518  0  3.928695  0
C  C13  1  0.94226631  0.62482483  0.24383051  1  0  -0.092451  0  3.688799  0  0  -0.116446  0  3.94089  0  0  -0.119891  0  3.960101  0  0  -0.078646  -0.114567  0  3.928887  0
C  C14  1  0.15426460  0.28172721  0.67985105  1  0  -0.089026  0  3.710537  0  0  -0.082464  0  3.954617  0  0  -0.086238  0  3.97342  0  0  -0.009575  -0.079944  0  3.942151  0
C  C15  1  0.84575641  0.71825995  0.32014938  1  0  -0.088912  0  3.709812  0  0  -0.082416  0  3.953995  0  0  -0.086164  0  3.972777  0  0  -0.009549  -0.079903  0  3.941533  0
C  C16  1  0.30183282  0.10203061  0.68513895  1  0  0.079631  0  3.769675  0  0  0.084055  0  4.039667  0  0  0.085011  0  4.061703  0  0  0.023284  0.083054  0  4.025107  0
C  C17  1  0.69816310  0.89796575  0.31485655  1  0  0.079748  0  3.769523  0  0  0.084147  0  4.03958  0  0  0.0851  0  4.061611  0  0  0.023292  0.083145  0  4.025017  0
C  C18  1  0.33792251  0.02628071  0.76385006  1  0  0.053902  0  3.674435  0  0  0.015987  0  3.929269  0  0  0.020522  0  3.944281  0  0  0.031396  0.012605  0  3.920204  0
C  C19  1  0.66205539  0.97371232  0.23615330  1  0  0.053772  0  3.674975  0  0  0.01589  0  3.929785  0  0  0.02044  0  3.944814  0  0  0.031357  0.012512  0  3.920714  0
C  C20  1  0.09230296  0.37516605  0.59970293  1  0  0.677872  0  3.773399  0  0  0.624184  0  4.076804  0  0  0.659865  0  4.063134  0  0  0.238774  0.599625  0  4.086067  0
C  C21  1  0.90773145  0.62481494  0.40030179  1  0  0.677723  0  3.773806  0  0  0.624193  0  4.077  0  0  0.659838  0  4.063379  0  0  0.238854  0.599646  0  4.086246  0
I  I22  1  0.30617288  0.27199555  0.06876252  1  0  -0.325424  0  1.822052  0  0  -0.273464  0  2.293678  0  0  -0.293312  0  2.253259  0  0  -0.160556  -0.258284  0  2.321667  0
I  I23  1  0.69377603  0.72802357  0.93122903  1  0  -0.325493  0  1.822131  0  0  -0.273433  0  2.293551  0  0  -0.293259  0  2.253125  0  0  -0.160593  -0.258257  0  2.321544  0
N  N24  1  0.24136612  0.11766513  0.83585819  1  0  -0.224513  0  3.355302  0  0  -0.150895  0  3.635612  0  0  -0.160363  0  3.643865  0  0  -0.352404  -0.14586  0  3.630938  0
N  N25  1  0.75860810  0.88233401  0.16414350  1  0  -0.224638  0  3.35528  0  0  -0.15097  0  3.635514  0  0  -0.160505  0  3.643856  0  0  -0.352426  -0.145929  0  3.63083  0
Cl  Cl26  1  0.44191628  0.96483789  0.60032304  1  0  -0.018232  0  1.471896  0  0  -0.007602  0  1.725374  0  0  -0.011685  0  1.721285  0  0  0.035114  -0.004375  0  1.728262  0
Cl  Cl27  1  0.55811757  0.03515356  0.39968652  1  0  -0.018278  0  1.471707  0  0  -0.007635  0  1.725201  0  0  -0.01172  0  1.721115  0  0  0.035118  -0.004403  0  1.728089  0
O  O28  1  0.20831883  0.32041260  0.53129663  1  0  -0.555401  0  2.038171  0  0  -0.512131  0  2.267921  0  0  -0.53293  0  2.257789  0  0  -0.282898  -0.498078  0  2.274794  0
O  O29  1  0.79177248  0.67959468  0.46869658  1  0  -0.555255  0  2.038888  0  0  -0.511986  0  2.268558  0  0  -0.532779  0  2.25845  0  0  -0.282823  -0.497932  0  2.275419  0
O  O30  1  0.90233516  0.52246051  0.60926430  1  0  -0.545658  0  2.12162  0  0  -0.496398  0  2.34571  0  0  -0.518504  0  2.330671  0  0  -0.32571  -0.481332  0  2.35587  0
O  O31  1  0.09769715  0.47753552  0.39074418  1  0  -0.545747  0  2.121944  0  0  -0.496627  0  2.345946  0  0  -0.518716  0  2.330908  0  0  -0.32586  -0.481565  0  2.356116  0
