# generated using pymatgen
data_LiH2C2O3
_symmetry_space_group_name_H-M   'P 1'
_cell_length_a   5.33749963
_cell_length_b   5.33730623
_cell_length_c   11.72607698
_cell_angle_alpha   89.99969954
_cell_angle_beta   89.99935161
_cell_angle_gamma   116.43297136
_symmetry_Int_Tables_number   1
_chemical_formula_structural   LiH2C2O3
_chemical_formula_sum   'Li4 H8 C8 O12'
_cell_volume   299.12784766
_cell_formula_units_Z   4
loop_
 _symmetry_equiv_pos_site_id
 _symmetry_equiv_pos_as_xyz
  1  'x, y, z'
loop_
 _atom_site_type_symbol
 _atom_site_label
 _atom_site_symmetry_multiplicity
 _atom_site_fract_x
 _atom_site_fract_y
 _atom_site_fract_z
 _atom_site_occupancy
 _atom_site_hle17_bader_spin_density
 _atom_site_hle17_ddec_charge
 _atom_site_hle17_ddec_spin_density
 _atom_site_hle17_ddec_sum_bond_order
 _atom_site_hle17_magmom
 _atom_site_hse06_10hf_bader_spin_density
 _atom_site_hse06_10hf_ddec_charge
 _atom_site_hse06_10hf_ddec_spin_density
 _atom_site_hse06_10hf_ddec_sum_bond_order
 _atom_site_hse06_10hf_magmom
 _atom_site_hse06_bader_spin_density
 _atom_site_hse06_ddec_charge
 _atom_site_hse06_ddec_spin_density
 _atom_site_hse06_ddec_sum_bond_order
 _atom_site_hse06_magmom
 _atom_site_pbe_bader_spin_density
 _atom_site_pbe_cm5_charge
 _atom_site_pbe_ddec_charge
 _atom_site_pbe_ddec_spin_density
 _atom_site_pbe_ddec_sum_bond_order
 _atom_site_pbe_magmom
Li  Li0  1  0.19498410  0.62036953  0.93213067  1  0  0.847314  0  0.411398  0  0  0.807765  0  0.516396  0  0  0.817117  0  0.49996  0  0  0.542433  0.801041  0  0.528106  0
Li  Li1  1  0.80498958  0.37960716  0.43213741  1  0  0.84735  0  0.411324  0  0  0.807741  0  0.516431  0  0  0.817096  0  0.499999  0  0  0.542413  0.801006  0  0.528148  0
Li  Li2  1  0.62035398  0.19498646  0.06784923  1  0  0.8473  0  0.411353  0  0  0.807737  0  0.516397  0  0  0.817085  0  0.499964  0  0  0.542397  0.801013  0  0.528108  0
Li  Li3  1  0.37965111  0.80500252  0.56787596  1  0  0.847311  0  0.411396  0  0  0.807781  0  0.516382  0  0  0.81713  0  0.499945  0  0  0.542419  0.80105  0  0.528097  0
H  H4  1  0.57611214  0.70338833  0.14355280  1  0  0.396134  0  0.902919  0  0  0.369984  0  0.97421  0  0  0.381234  0  0.957813  0  0  0.314267  0.362066  0  0.984276  0
H  H5  1  0.42391481  0.29660257  0.64356061  1  0  0.396077  0  0.903191  0  0  0.370055  0  0.974166  0  0  0.381305  0  0.957767  0  0  0.314304  0.362138  0  0.984351  0
H  H6  1  0.70334902  0.57608152  0.85645677  1  0  0.396042  0  0.902976  0  0  0.369866  0  0.974346  0  0  0.381113  0  0.957959  0  0  0.314313  0.361947  0  0.984353  0
H  H7  1  0.29659538  0.42391426  0.35644270  1  0  0.396075  0  0.903077  0  0  0.370051  0  0.97414  0  0  0.381301  0  0.957741  0  0  0.31429  0.362133  0  0.984243  0
H  H8  1  0.02643091  0.84043009  0.15758550  1  0  0.081056  0  0.915805  0  0  0.086681  0  0.979496  0  0  0.089415  0  0.977192  0  0  0.136333  0.084652  0  0.981341  0
H  H9  1  0.97357688  0.15955632  0.65757054  1  0  0.081067  0  0.916105  0  0  0.086638  0  0.979719  0  0  0.089375  0  0.977419  0  0  0.136308  0.084594  0  0.981578  0
H  H10  1  0.84044624  0.02644323  0.84242063  1  0  0.081027  0  0.915997  0  0  0.086607  0  0.97965  0  0  0.089352  0  0.977354  0  0  0.136295  0.084606  0  0.981462  0
H  H11  1  0.15953417  0.97356953  0.34242939  1  0  0.081071  0  0.916077  0  0  0.086669  0  0.979695  0  0  0.089405  0  0.977392  0  0  0.136331  0.08461  0  0.981571  0
C  C12  1  0.14494856  0.27656880  0.12525772  1  0  0.693125  0  3.84986  0  0  0.642123  0  4.154061  0  0  0.67444  0  4.144698  0  0  0.238931  0.620166  0  4.159868  0
C  C13  1  0.85507247  0.72342894  0.62526119  1  0  0.693226  0  3.849503  0  0  0.64189  0  4.154126  0  0  0.674203  0  4.14479  0  0  0.238778  0.619931  0  4.159912  0
C  C14  1  0.27655196  0.14493526  0.87473657  1  0  0.693184  0  3.849251  0  0  0.641945  0  4.153723  0  0  0.674277  0  4.144368  0  0  0.238862  0.619983  0  4.159535  0
C  C15  1  0.72342639  0.85504932  0.37473694  1  0  0.693192  0  3.849825  0  0  0.64221  0  4.153924  0  0  0.674507  0  4.144607  0  0  0.238936  0.620265  0  4.159689  0
C  C16  1  0.95815084  0.99867287  0.18396895  1  0  0.066212  0  3.59485  0  0  0.042501  0  3.844385  0  0  0.04397  0  3.849695  0  0  0.017685  0.04139  0  3.840806  0
C  C17  1  0.04183749  0.00133807  0.68396945  1  0  0.066001  0  3.594626  0  0  0.042722  0  3.843673  0  0  0.044189  0  3.84902  0  0  0.017847  0.041615  0  3.840106  0
C  C18  1  0.99864643  0.95815032  0.81604129  1  0  0.066029  0  3.594957  0  0  0.042583  0  3.844143  0  0  0.044002  0  3.849523  0  0  0.01769  0.041452  0  3.840578  0
C  C19  1  0.00134134  0.04184847  0.31603063  1  0  0.065976  0  3.594513  0  0  0.04252  0  3.84377  0  0  0.043987  0  3.84909  0  0  0.017753  0.041422  0  3.840196  0
O  O20  1  0.02761857  0.40197185  0.07110089  1  0  -0.750962  0  1.947432  0  0  -0.70675  0  2.189902  0  0  -0.727325  0  2.174842  0  0  -0.426121  -0.692529  0  2.200009  0
O  O21  1  0.97240418  0.59801903  0.57110046  1  0  -0.750824  0  1.94709  0  0  -0.706522  0  2.189694  0  0  -0.727097  0  2.174651  0  0  -0.426016  -0.692295  0  2.199786  0
O  O22  1  0.40198049  0.02761111  0.92889166  1  0  -0.750855  0  1.947165  0  0  -0.706588  0  2.189744  0  0  -0.727164  0  2.174682  0  0  -0.426095  -0.692369  0  2.199854  0
O  O23  1  0.59802697  0.97237807  0.42890452  1  0  -0.750993  0  1.947228  0  0  -0.706796  0  2.189683  0  0  -0.727363  0  2.174627  0  0  -0.426211  -0.692573  0  2.199776  0
O  O24  1  0.40751461  0.36513250  0.13533180  1  0  -0.69715  0  2.020674  0  0  -0.650202  0  2.261999  0  0  -0.673183  0  2.248831  0  0  -0.367668  -0.634259  0  2.27047  0
O  O25  1  0.59248545  0.63483990  0.63533877  1  0  -0.697196  0  2.020568  0  0  -0.650211  0  2.262013  0  0  -0.673196  0  2.248855  0  0  -0.367624  -0.634267  0  2.270496  0
O  O26  1  0.36514487  0.40753803  0.86465253  1  0  -0.697159  0  2.020527  0  0  -0.650125  0  2.261947  0  0  -0.673107  0  2.24878  0  0  -0.367639  -0.634179  0  2.270408  0
O  O27  1  0.63483859  0.59248247  0.36464457  1  0  -0.697076  0  2.020881  0  0  -0.650181  0  2.262171  0  0  -0.673162  0  2.249021  0  0  -0.367569  -0.634237  0  2.270634  0
O  O28  1  0.67586215  0.91356007  0.15001311  1  0  -0.635623  0  2.106252  0  0  -0.592051  0  2.334231  0  0  -0.605612  0  2.315865  0  0  -0.455796  -0.582472  0  2.345652  0
O  O29  1  0.32421330  0.08646813  0.65002364  1  0  -0.63569  0  2.105814  0  0  -0.592332  0  2.333453  0  0  -0.605884  0  2.315077  0  0  -0.45598  -0.582752  0  2.344975  0
O  O30  1  0.91352455  0.67582590  0.84999350  1  0  -0.635547  0  2.106068  0  0  -0.592038  0  2.334101  0  0  -0.605582  0  2.315751  0  0  -0.455876  -0.582457  0  2.345484  0
O  O31  1  0.08645663  0.32421391  0.34998945  1  0  -0.635696  0  2.105718  0  0  -0.592272  0  2.333455  0  0  -0.605829  0  2.315086  0  0  -0.455992  -0.582689  0  2.344901  0
