# generated using pymatgen
data_CsNiH3(CO2)3
_symmetry_space_group_name_H-M   'P 1'
_cell_length_a   7.47242012
_cell_length_b   7.47236689
_cell_length_c   8.06777731
_cell_angle_alpha   90.00005940
_cell_angle_beta   90.00000661
_cell_angle_gamma   120.00054810
_symmetry_Int_Tables_number   1
_chemical_formula_structural   CsNiH3(CO2)3
_chemical_formula_sum   'Cs2 Ni2 H6 C6 O12'
_cell_volume   390.12304346
_cell_formula_units_Z   2
loop_
 _symmetry_equiv_pos_site_id
 _symmetry_equiv_pos_as_xyz
  1  'x, y, z'
loop_
 _atom_site_type_symbol
 _atom_site_label
 _atom_site_symmetry_multiplicity
 _atom_site_fract_x
 _atom_site_fract_y
 _atom_site_fract_z
 _atom_site_occupancy
 _atom_site_pbe_cm5_charge
 _atom_site_pbe_ddec_charge
 _atom_site_pbe_ddec_spin_density
 _atom_site_pbe_ddec_sum_bond_order
 _atom_site_pbe_magmom
Cs  Cs0  1  0.99999113  0.99998531  0.75000015  1  0.863701  0.854351  0.001694  0.863132  0.001
Cs  Cs1  1  0.00000985  0.00001456  0.25000070  1  0.863705  0.854362  0.001694  0.863121  0.001
Ni  Ni2  1  0.33333236  0.66666674  0.74999996  1  0.623856  0.934694  1.791413  2.329798  1.597
Ni  Ni3  1  0.66666785  0.33333390  0.25000089  1  0.623851  0.934637  1.791409  2.329895  1.597
H  H4  1  0.59952836  0.99999975  0.49999895  1  0.117717  0.021177  0.000167  1.031875  0.001
H  H5  1  0.59952889  0.59953052  0.99999941  1  0.117703  0.021149  0.000167  1.031902  0.001
H  H6  1  0.00000054  0.59953076  0.50000169  1  0.117704  0.021159  0.000167  1.031878  0.001
H  H7  1  0.40047313  0.00000003  0.99999911  1  0.117725  0.021175  0.000167  1.031868  0.001
H  H8  1  0.40047021  0.40046918  0.49999914  1  0.117696  0.021148  0.000167  1.03191  0.001
H  H9  1  0.99999943  0.40046948  0.00000147  1  0.117699  0.021166  0.000167  1.031906  0.001
C  C10  1  0.45172880  0.99999933  0.50000066  1  0.146697  0.500729  -0.00482  4.171299  -0.004
C  C11  1  0.45173096  0.45173002  0.00000023  1  0.146704  0.500752  -0.00482  4.171288  -0.004
C  C12  1  0.99999969  0.45172865  0.50000042  1  0.146677  0.500743  -0.00482  4.171216  -0.004
C  C13  1  0.54827117  0.00000091  0.00000002  1  0.146665  0.500706  -0.004821  4.171227  -0.004
C  C14  1  0.54826978  0.54826945  0.49999921  1  0.14671  0.500761  -0.00482  4.171406  -0.004
C  C15  1  0.00000027  0.54827159  0.00000150  1  0.146707  0.500706  -0.00482  4.171327  -0.004
O  O16  1  0.31318864  0.88507673  0.60345785  1  -0.380117  -0.559097  0.036808  2.443258  0.061
O  O17  1  0.42811365  0.31319109  0.10345741  1  -0.380141  -0.559117  0.036808  2.443301  0.061
O  O18  1  0.11492336  0.42811228  0.60346010  1  -0.380125  -0.559146  0.03681  2.443193  0.061
O  O19  1  0.68681009  0.11492234  0.10345857  1  -0.380112  -0.559091  0.036809  2.443269  0.061
O  O20  1  0.57188642  0.68680931  0.60345652  1  -0.380153  -0.559143  0.036808  2.443323  0.061
O  O21  1  0.88507881  0.57188869  0.10346003  1  -0.380128  -0.559098  0.036808  2.443258  0.061
O  O22  1  0.42811346  0.11492281  0.39654052  1  -0.380147  -0.559143  0.03681  2.443307  0.061
O  O23  1  0.68680887  0.57188764  0.39654199  1  -0.3801  -0.559107  0.036809  2.443306  0.061
O  O24  1  0.88507719  0.31319048  0.39654187  1  -0.380108  -0.559105  0.036809  2.443276  0.061
O  O25  1  0.11492449  0.68681174  0.89654218  1  -0.380132  -0.559123  0.036809  2.443296  0.061
O  O26  1  0.57188765  0.88507729  0.89653982  1  -0.380132  -0.559113  0.03681  2.443192  0.061
O  O27  1  0.31318937  0.42811267  0.89654207  1  -0.380121  -0.559132  0.03681  2.443206  0.061
