# generated using pymatgen
data_CdH5C2SN3O5
_symmetry_space_group_name_H-M   'P 1'
_cell_length_a   5.49839325
_cell_length_b   7.98445825
_cell_length_c   9.40384280
_cell_angle_alpha   79.15158214
_cell_angle_beta   73.20769234
_cell_angle_gamma   87.06590864
_symmetry_Int_Tables_number   1
_chemical_formula_structural   CdH5C2SN3O5
_chemical_formula_sum   'Cd2 H10 C4 S2 N6 O10'
_cell_volume   388.17446080
_cell_formula_units_Z   2
loop_
 _symmetry_equiv_pos_site_id
 _symmetry_equiv_pos_as_xyz
  1  'x, y, z'
loop_
 _atom_site_type_symbol
 _atom_site_label
 _atom_site_symmetry_multiplicity
 _atom_site_fract_x
 _atom_site_fract_y
 _atom_site_fract_z
 _atom_site_occupancy
 _atom_site_pbe_bader_spin_density
 _atom_site_pbe_cm5_charge
 _atom_site_pbe_ddec_charge
 _atom_site_pbe_ddec_spin_density
 _atom_site_pbe_ddec_sum_bond_order
 _atom_site_pbe_magmom
Cd  Cd0  1  0.99999788  0.00000160  0.00000030  1  0  0.82838  1.004009  0  2.184458  0
Cd  Cd1  1  0.50000217  0.50000267  0.49999919  1  0  0.793659  0.967552  0  2.14091  0
H  H2  1  0.47088314  0.81498777  0.72410209  1  0  0.145188  0.121924  0  0.973172  0
H  H3  1  0.52911360  0.18502137  0.27589271  1  0  0.14516  0.12189  0  0.97329  0
H  H4  1  0.89536043  0.47082349  0.75052484  1  0  0.139403  0.109316  0  1.058356  0
H  H5  1  0.10465338  0.52916917  0.24948464  1  0  0.139389  0.109264  0  1.058327  0
H  H6  1  0.73197066  0.66476585  0.95607318  1  0  0.321386  0.291203  0  1.001407  0
H  H7  1  0.26803170  0.33522679  0.04393295  1  0  0.321384  0.291166  0  1.001475  0
H  H8  1  0.03143343  0.27807721  0.56799244  1  0  0.287229  0.393161  0  0.937672  0
H  H9  1  0.96856895  0.72192682  0.43200223  1  0  0.287271  0.393235  0  0.937562  0
H  H10  1  0.25475912  0.20011489  0.62932413  1  0  0.287578  0.388561  0  0.947199  0
H  H11  1  0.74524329  0.79988916  0.37067266  1  0  0.2876  0.388614  0  0.947167  0
C  C12  1  0.29310014  0.74492601  0.75924484  1  0  0.164689  0.179711  0  3.901263  0
C  C13  1  0.70689277  0.25507680  0.24075592  1  0  0.164714  0.179726  0  3.901088  0
C  C14  1  0.00382541  0.56885680  0.77076895  1  0  0.170805  0.171413  0  3.88335  0
C  C15  1  0.99617886  0.43113584  0.22923792  1  0  0.170762  0.171428  0  3.883257  0
S  S16  1  0.42658664  0.79181974  0.19130117  1  0  0.563989  1.424496  0  6.383116  0
S  S17  1  0.57340811  0.20817922  0.80869778  1  0  0.564002  1.424481  0  6.383094  0
N  N18  1  0.24405110  0.61628765  0.69487392  1  0  -0.347167  -0.331225  0  3.456716  0
N  N19  1  0.75595130  0.38371260  0.30512669  1  0  -0.347136  -0.331204  0  3.456698  0
N  N20  1  0.09448743  0.77637440  0.87065089  1  0  -0.235216  -0.192528  0  3.372958  0
N  N21  1  0.90551684  0.22362456  0.12934855  1  0  -0.235265  -0.19258  0  3.372721  0
N  N22  1  0.91336760  0.66427775  0.87628477  1  0  -0.253857  -0.088088  0  3.625431  0
N  N23  1  0.08663857  0.33571741  0.12371816  1  0  -0.253775  -0.087953  0  3.625209  0
O  O24  1  0.21908438  0.26610070  0.53687463  1  0  -0.594204  -0.762822  0  1.992617  0
O  O25  1  0.78091996  0.73390718  0.46312119  1  0  -0.594269  -0.762947  0  1.99256  0
O  O26  1  0.29578316  0.69268702  0.34588012  1  0  -0.365987  -0.683482  0  2.290312  0
O  O27  1  0.70421728  0.30731319  0.65411552  1  0  -0.366016  -0.683528  0  2.29027  0
O  O28  1  0.67767826  0.85222901  0.19736342  1  0  -0.365239  -0.688454  0  2.320727  0
O  O29  1  0.32231458  0.14776868  0.80263607  1  0  -0.365205  -0.688398  0  2.320748  0
O  O30  1  0.26727190  0.94035728  0.15747998  1  0  -0.369783  -0.662647  0  2.284219  0
O  O31  1  0.73272280  0.05963785  0.84251855  1  0  -0.369789  -0.662657  0  2.284126  0
O  O32  1  0.46674169  0.67782759  0.07928794  1  0  -0.359835  -0.656338  0  2.230574  0
O  O33  1  0.53325306  0.32216885  0.92071356  1  0  -0.359842  -0.656296  0  2.230556  0
