# generated using pymatgen
data_CuP2H10C10IO2
_symmetry_space_group_name_H-M   'P 1'
_cell_length_a   4.10076551
_cell_length_b   7.24583700
_cell_length_c   11.20719793
_cell_angle_alpha   108.86855711
_cell_angle_beta   92.25918457
_cell_angle_gamma   89.95383826
_symmetry_Int_Tables_number   1
_chemical_formula_structural   CuP2H10C10IO2
_chemical_formula_sum   'Cu1 P2 H10 C10 I1 O2'
_cell_volume   314.84010270
_cell_formula_units_Z   1
loop_
 _symmetry_equiv_pos_site_id
 _symmetry_equiv_pos_as_xyz
  1  'x, y, z'
loop_
 _atom_site_type_symbol
 _atom_site_label
 _atom_site_symmetry_multiplicity
 _atom_site_fract_x
 _atom_site_fract_y
 _atom_site_fract_z
 _atom_site_occupancy
 _atom_site_hle17_bader_spin_density
 _atom_site_hle17_ddec_charge
 _atom_site_hle17_ddec_spin_density
 _atom_site_hle17_ddec_sum_bond_order
 _atom_site_hle17_magmom
 _atom_site_hse06_10hf_bader_spin_density
 _atom_site_hse06_10hf_ddec_charge
 _atom_site_hse06_10hf_ddec_spin_density
 _atom_site_hse06_10hf_ddec_sum_bond_order
 _atom_site_hse06_10hf_magmom
 _atom_site_hse06_bader_spin_density
 _atom_site_hse06_ddec_charge
 _atom_site_hse06_ddec_spin_density
 _atom_site_hse06_ddec_sum_bond_order
 _atom_site_hse06_magmom
 _atom_site_pbe_bader_spin_density
 _atom_site_pbe_cm5_charge
 _atom_site_pbe_ddec_charge
 _atom_site_pbe_ddec_spin_density
 _atom_site_pbe_ddec_sum_bond_order
 _atom_site_pbe_magmom
Cu  Cu0  1  0.50036113  0.39917753  0.00001760  1  0  0.093127  0  2.689699  0  0  0.029382  0  3.19338  0  0  0.029011  0  3.153165  0  0  0.32221  0.031231  0  3.219913  0
P  P1  1  0.54647763  0.14485730  0.82984742  1  0  0.085973  0  3.613989  0  0  0.06555  0  4.070647  0  0  0.073735  0  4.067032  0  0  -0.116371  0.059393  0  4.072886  0
P  P2  1  0.45370492  0.31533709  0.17025260  1  0  0.086443  0  3.61288  0  0  0.065812  0  4.069982  0  0  0.074036  0  4.066279  0  0  -0.116579  0.060016  0  4.071887  0
H  H3  1  0.91331834  0.96834699  0.51275301  1  0  0.107901  0  0.951058  0  0  0.120716  0  1.010991  0  0  0.12368  0  1.009781  0  0  0.107597  0.118538  0  1.012009  0
H  H4  1  0.08664771  0.45610574  0.48731270  1  0  0.106845  0  0.951242  0  0  0.119909  0  1.011155  0  0  0.122793  0  1.010021  0  0  0.106921  0.117805  0  1.012004  0
H  H5  1  0.69388272  0.65818671  0.50937174  1  0  0.087993  0  0.971657  0  0  0.096446  0  1.037617  0  0  0.09909  0  1.035936  0  0  0.09878  0.094565  0  1.038867  0
H  H6  1  0.30583852  0.14893479  0.49052813  1  0  0.088727  0  0.970547  0  0  0.097394  0  1.035946  0  0  0.100093  0  1.034234  0  0  0.099168  0.095441  0  1.03725  0
H  H7  1  0.41086806  0.60735168  0.68440417  1  0  0.088198  0  0.949204  0  0  0.100225  0  1.009405  0  0  0.10347  0  1.00761  0  0  0.097229  0.097883  0  1.010922  0
H  H8  1  0.58876558  0.92285787  0.31541660  1  0  0.087826  0  0.948466  0  0  0.099762  0  1.008913  0  0  0.102935  0  1.007236  0  0  0.097246  0.097406  0  1.010349  0
H  H9  1  0.30175705  0.87605704  0.87761872  1  0  0.113743  0  0.982607  0  0  0.125186  0  1.044592  0  0  0.127924  0  1.044738  0  0  0.086112  0.123154  0  1.044693  0
H  H10  1  0.69827161  0.99851301  0.12233754  1  0  0.114641  0  0.982207  0  0  0.125876  0  1.044301  0  0  0.128605  0  1.04441  0  0  0.086315  0.123761  0  1.044498  0
H  H11  1  0.88534834  0.40739876  0.76370809  1  0  0.346504  0  0.90534  0  0  0.32327  0  0.988016  0  0  0.333283  0  0.976318  0  0  0.284284  0.316228  0  0.996106  0
H  H12  1  0.11452363  0.64419573  0.23639065  1  0  0.345797  0  0.904864  0  0  0.322336  0  0.987835  0  0  0.332309  0  0.976183  0  0  0.284369  0.31531  0  0.995928  0
C  C13  1  0.75249077  0.13574620  0.69435869  1  0  0.177407  0  3.770356  0  0  0.183142  0  4.042792  0  0  0.190648  0  4.061401  0  0  0.072352  0.17834  0  4.029838  0
C  C14  1  0.24765759  0.44187307  0.30577120  1  0  0.176638  0  3.767923  0  0  0.182509  0  4.040512  0  0  0.189984  0  4.059128  0  0  0.072506  0.17713  0  4.027993  0
C  C15  1  0.78245636  0.96234949  0.59438084  1  0  -0.140232  0  3.73134  0  0  -0.157201  0  3.980896  0  0  -0.162891  0  4.002624  0  0  -0.093418  -0.153495  0  3.966251  0
C  C16  1  0.21771300  0.36840216  0.40570551  1  0  -0.138319  0  3.729669  0  0  -0.155365  0  3.978977  0  0  -0.161008  0  4.000792  0  0  -0.092518  -0.151532  0  3.964285  0
C  C17  1  0.65969523  0.78270728  0.59363121  1  0  -0.028182  0  3.732651  0  0  -0.047951  0  3.989236  0  0  -0.045139  0  4.006998  0  0  -0.08212  -0.049842  0  3.977367  0
C  C18  1  0.34027396  0.18931821  0.40633952  1  0  -0.029688  0  3.733707  0  0  -0.049543  0  3.990478  0  0  -0.046792  0  4.008229  0  0  -0.082683  -0.051369  0  3.978268  0
C  C19  1  0.49602369  0.75420322  0.69349205  1  0  -0.044856  0  3.785754  0  0  -0.061177  0  4.041071  0  0  -0.063752  0  4.062518  0  0  -0.095683  -0.059779  0  4.027005  0
C  C20  1  0.50386163  0.06078096  0.30643734  1  0  -0.04341  0  3.785877  0  0  -0.059685  0  4.041587  0  0  -0.062219  0  4.062978  0  0  -0.095396  -0.058084  0  4.027066  0
C  C21  1  0.43482795  0.90559697  0.80307423  1  0  -0.190173  0  3.728287  0  0  -0.190907  0  3.984301  0  0  -0.194878  0  4.006479  0  0  -0.102603  -0.188081  0  3.969509  0
C  C22  1  0.56524057  0.10267996  0.19692799  1  0  -0.192387  0  3.730729  0  0  -0.193149  0  3.987186  0  0  -0.19708  0  4.009333  0  0  -0.102848  -0.190017  0  3.972036  0
I  I23  1  0.00007738  0.63222024  0.99983601  1  0  -0.359184  0  1.617814  0  0  -0.300867  0  2.028114  0  0  -0.317423  0  1.996266  0  0  -0.151076  -0.289905  0  2.051449  0
O  O24  1  0.88618090  0.30111913  0.68199477  1  0  -0.471192  0  2.153085  0  0  -0.421503  0  2.363741  0  0  -0.440907  0  2.358287  0  0  -0.341927  -0.407751  0  2.366878  0
O  O25  1  0.11372363  0.61964568  0.31809480  1  0  -0.470142  0  2.151661  0  0  -0.420165  0  2.362544  0  0  -0.439507  0  2.35715  0  0  -0.341868  -0.406348  0  2.365965  0
