# generated using pymatgen
data_ErPH3CO6
_symmetry_space_group_name_H-M   'P 1'
_cell_length_a   6.43475985
_cell_length_b   6.84898252
_cell_length_c   8.12075250
_cell_angle_alpha   114.29135231
_cell_angle_beta   101.82549637
_cell_angle_gamma   90.18332741
_symmetry_Int_Tables_number   1
_chemical_formula_structural   ErPH3CO6
_chemical_formula_sum   'Er2 P2 H6 C2 O12'
_cell_volume   317.74525351
_cell_formula_units_Z   2
loop_
 _symmetry_equiv_pos_site_id
 _symmetry_equiv_pos_as_xyz
  1  'x, y, z'
loop_
 _atom_site_type_symbol
 _atom_site_label
 _atom_site_symmetry_multiplicity
 _atom_site_fract_x
 _atom_site_fract_y
 _atom_site_fract_z
 _atom_site_occupancy
 _atom_site_hle17_bader_spin_density
 _atom_site_hle17_ddec_charge
 _atom_site_hle17_ddec_spin_density
 _atom_site_hle17_ddec_sum_bond_order
 _atom_site_hle17_magmom
 _atom_site_hse06_10hf_bader_spin_density
 _atom_site_hse06_10hf_ddec_charge
 _atom_site_hse06_10hf_ddec_spin_density
 _atom_site_hse06_10hf_ddec_sum_bond_order
 _atom_site_hse06_10hf_magmom
 _atom_site_hse06_bader_spin_density
 _atom_site_hse06_ddec_charge
 _atom_site_hse06_ddec_spin_density
 _atom_site_hse06_ddec_sum_bond_order
 _atom_site_hse06_magmom
 _atom_site_pbe_bader_spin_density
 _atom_site_pbe_cm5_charge
 _atom_site_pbe_ddec_charge
 _atom_site_pbe_ddec_spin_density
 _atom_site_pbe_ddec_sum_bond_order
 _atom_site_pbe_magmom
Er  Er0  1  0.11394277  0.21831381  0.93552197  1  0  2.307508  0  1.633782  0  0  2.170184  0  2.088884  0  0  2.294076  0  1.90513  0  0  1.556863  2.136525  0  2.117476  0
Er  Er1  1  0.88604617  0.78165588  0.06443774  1  0  2.307644  0  1.633629  0  0  2.170321  0  2.088708  0  0  2.294212  0  1.904971  0  0  1.5569  2.136686  0  2.117266  0
P  P2  1  0.66804926  0.25240899  0.00849487  1  0  1.527631  0  4.862613  0  0  1.343838  0  5.379058  0  0  1.396003  0  5.353511  0  0  0.284196  1.306949  0  5.40896  0
P  P3  1  0.33193856  0.74756761  0.99149046  1  0  1.527802  0  4.862375  0  0  1.343992  0  5.378855  0  0  1.396161  0  5.353288  0  0  0.284126  1.307107  0  5.408775  0
H  H4  1  0.65968120  0.33848396  0.19691981  1  0  -0.125385  0  0.856958  0  0  -0.095018  0  0.935975  0  0  -0.097709  0  0.930393  0  0  0.111161  -0.093068  0  0.940033  0
H  H5  1  0.34028230  0.66147482  0.80307006  1  0  -0.125454  0  0.856967  0  0  -0.095071  0  0.935971  0  0  -0.097765  0  0.930394  0  0  0.111176  -0.093119  0  0.940026  0
H  H6  1  0.13377215  0.28734232  0.30655956  1  0  0.439759  0  0.855423  0  0  0.412603  0  0.911848  0  0  0.423385  0  0.896215  0  0  0.307488  0.405101  0  0.922873  0
H  H7  1  0.86623173  0.71265079  0.69344073  1  0  0.439797  0  0.855354  0  0  0.412621  0  0.911821  0  0  0.423405  0  0.896186  0  0  0.307439  0.405121  0  0.922842  0
H  H8  1  0.13946797  0.51743085  0.30764004  1  0  0.443349  0  0.850981  0  0  0.414956  0  0.909189  0  0  0.426205  0  0.892868  0  0  0.30642  0.407151  0  0.920645  0
H  H9  1  0.86056643  0.48255300  0.69235350  1  0  0.443377  0  0.850973  0  0  0.415105  0  0.908999  0  0  0.426353  0  0.892678  0  0  0.306444  0.407297  0  0.920462  0
C  C10  1  0.99341501  0.11142295  0.49894318  1  0  0.590095  0  3.89712  0  0  0.545729  0  4.188144  0  0  0.575965  0  4.184439  0  0  0.239349  0.525143  0  4.194673  0
C  C11  1  0.00656893  0.88867908  0.50109140  1  0  0.590014  0  3.897545  0  0  0.545648  0  4.188595  0  0  0.575882  0  4.184881  0  0  0.239132  0.525025  0  4.195173  0
O  O12  1  0.80308143  0.05737630  0.96916742  1  0  -1.029173  0  2.096085  0  0  -0.946209  0  2.379827  0  0  -0.992926  0  2.359666  0  0  -0.50703  -0.926713  0  2.392664  0
O  O13  1  0.19691777  0.94260372  0.03082047  1  0  -1.029268  0  2.096008  0  0  -0.946288  0  2.379723  0  0  -0.992998  0  2.359552  0  0  -0.507015  -0.926735  0  2.392431  0
O  O14  1  0.44069723  0.19807284  0.89306946  1  0  -0.917725  0  1.962231  0  0  -0.841307  0  2.237695  0  0  -0.879605  0  2.211239  0  0  -0.478625  -0.822383  0  2.251313  0
O  O15  1  0.55929983  0.80191322  0.10690418  1  0  -0.9178  0  1.962187  0  0  -0.841377  0  2.237664  0  0  -0.879671  0  2.211206  0  0  -0.47864  -0.822457  0  2.251287  0
O  O16  1  0.80451657  0.41609156  0.97769872  1  0  -1.027992  0  2.103226  0  0  -0.945131  0  2.387733  0  0  -0.991812  0  2.367631  0  0  -0.505627  -0.925606  0  2.400533  0
O  O17  1  0.19548455  0.58390163  0.02230742  1  0  -1.028023  0  2.103353  0  0  -0.945166  0  2.387868  0  0  -0.991847  0  2.367767  0  0  -0.505564  -0.925645  0  2.400668  0
O  O18  1  0.01042441  0.26948054  0.65478228  1  0  -0.658052  0  2.100393  0  0  -0.605292  0  2.33692  0  0  -0.638406  0  2.324142  0  0  -0.335351  -0.588572  0  2.343704  0
O  O19  1  0.98959734  0.73060014  0.34527196  1  0  -0.658192  0  2.100483  0  0  -0.60539  0  2.336997  0  0  -0.638505  0  2.32421  0  0  -0.33535  -0.588669  0  2.3438  0
O  O20  1  0.03287417  0.88387073  0.65789219  1  0  -0.657027  0  2.10299  0  0  -0.605842  0  2.341259  0  0  -0.638553  0  2.328911  0  0  -0.332457  -0.589276  0  2.347921  0
O  O21  1  0.96710365  0.11612484  0.34209215  1  0  -0.657031  0  2.102669  0  0  -0.605862  0  2.340916  0  0  -0.638574  0  2.328582  0  0  -0.332422  -0.589308  0  2.347562  0
O  O22  1  0.19917560  0.37669064  0.25724108  1  0  -0.892873  0  1.82646  0  0  -0.848424  0  2.004496  0  0  -0.87654  0  1.964784  0  0  -0.646292  -0.835177  0  2.02698  0
O  O23  1  0.80085692  0.62329048  0.74277473  1  0  -0.89298  0  1.826509  0  0  -0.848619  0  2.004443  0  0  -0.876738  0  1.964727  0  0  -0.646321  -0.835379  0  2.026952  0
