# generated using pymatgen
data_Li2H7(C2O3)2
_symmetry_space_group_name_H-M   'P 1'
_cell_length_a   5.10876798
_cell_length_b   7.41663374
_cell_length_c   9.36576715
_cell_angle_alpha   105.26177237
_cell_angle_beta   94.97573283
_cell_angle_gamma   87.19299938
_symmetry_Int_Tables_number   1
_chemical_formula_structural   Li2H7(C2O3)2
_chemical_formula_sum   'Li4 H14 C8 O12'
_cell_volume   340.93626277
_cell_formula_units_Z   2
loop_
 _symmetry_equiv_pos_site_id
 _symmetry_equiv_pos_as_xyz
  1  'x, y, z'
loop_
 _atom_site_type_symbol
 _atom_site_label
 _atom_site_symmetry_multiplicity
 _atom_site_fract_x
 _atom_site_fract_y
 _atom_site_fract_z
 _atom_site_occupancy
 _atom_site_hle17_bader_spin_density
 _atom_site_hle17_ddec_charge
 _atom_site_hle17_ddec_spin_density
 _atom_site_hle17_ddec_sum_bond_order
 _atom_site_hle17_magmom
 _atom_site_hse06_10hf_bader_spin_density
 _atom_site_hse06_10hf_ddec_charge
 _atom_site_hse06_10hf_ddec_spin_density
 _atom_site_hse06_10hf_ddec_sum_bond_order
 _atom_site_hse06_10hf_magmom
 _atom_site_hse06_bader_spin_density
 _atom_site_hse06_ddec_charge
 _atom_site_hse06_ddec_spin_density
 _atom_site_hse06_ddec_sum_bond_order
 _atom_site_hse06_magmom
 _atom_site_pbe_bader_spin_density
 _atom_site_pbe_cm5_charge
 _atom_site_pbe_ddec_charge
 _atom_site_pbe_ddec_spin_density
 _atom_site_pbe_ddec_sum_bond_order
 _atom_site_pbe_magmom
Li  Li0  1  0.55431069  0.81560150  0.39733210  1  0  0.866937  0  0.375458  0  0  0.829298  0  0.476056  0  0  0.838344  0  0.460069  0  0  0.519732  0.822771  0  0.487531  0
Li  Li1  1  0.44568220  0.18440025  0.60266890  1  0  0.866945  0  0.375447  0  0  0.829308  0  0.476045  0  0  0.838354  0  0.460058  0  0  0.519748  0.822781  0  0.48752  0
Li  Li2  1  0.06089756  0.22511212  0.87116931  1  0  0.867474  0  0.362928  0  0  0.830508  0  0.460808  0  0  0.839083  0  0.44522  0  0  0.495813  0.824271  0  0.471888  0
Li  Li3  1  0.93910331  0.77488935  0.12883001  1  0  0.867471  0  0.362932  0  0  0.830514  0  0.460796  0  0  0.83909  0  0.445207  0  0  0.495818  0.824277  0  0.471875  0
H  H4  1  0.88680038  0.80161152  0.64823935  1  0  0.124814  0  0.929549  0  0  0.13714  0  0.994412  0  0  0.140524  0  0.992427  0  0  0.124537  0.134682  0  0.995954  0
H  H5  1  0.11320203  0.19838830  0.35176611  1  0  0.124798  0  0.929507  0  0  0.137137  0  0.994362  0  0  0.140521  0  0.992377  0  0  0.124537  0.13468  0  0.995903  0
H  H6  1  0.07928004  0.66824350  0.74903494  1  0  0.123047  0  0.919964  0  0  0.142641  0  0.970521  0  0  0.144929  0  0.97005  0  0  0.120752  0.141137  0  0.970736  0
H  H7  1  0.92073046  0.33175474  0.25096534  1  0  0.123064  0  0.919869  0  0  0.142611  0  0.970494  0  0  0.144897  0  0.970025  0  0  0.120728  0.14111  0  0.97071  0
H  H8  1  0.30019086  0.50091042  0.52073486  1  0  0.078451  0  0.941901  0  0  0.085077  0  1.010951  0  0  0.08792  0  1.008999  0  0  0.113395  0.082875  0  1.012757  0
H  H9  1  0.69980614  0.49908987  0.47926180  1  0  0.078396  0  0.941984  0  0  0.085073  0  1.011045  0  0  0.087914  0  1.009098  0  0  0.113358  0.082871  0  1.012849  0
H  H10  1  0.59966807  0.08438279  0.88223005  1  0  0.422504  0  0.882062  0  0  0.391362  0  0.94648  0  0  0.402564  0  0.929888  0  0  0.307651  0.383556  0  0.957992  0
H  H11  1  0.40033261  0.91561586  0.11776969  1  0  0.422483  0  0.882089  0  0  0.391349  0  0.946493  0  0  0.402552  0  0.929901  0  0  0.307648  0.383545  0  0.958003  0
H  H12  1  0.76615981  0.10140462  0.03255883  1  0  0.425965  0  0.878917  0  0  0.395958  0  0.941331  0  0  0.406321  0  0.926226  0  0  0.302617  0.388668  0  0.951914  0
H  H13  1  0.23384278  0.89859529  0.96744345  1  0  0.425922  0  0.878961  0  0  0.395887  0  0.941412  0  0  0.40625  0  0.926308  0  0  0.302592  0.388598  0  0.951993  0
H  H14  1  0.29427992  0.46742442  0.12016897  1  0  0.439121  0  0.857354  0  0  0.412235  0  0.913728  0  0  0.421678  0  0.899875  0  0  0.305724  0.405694  0  0.923347  0
H  H15  1  0.70572291  0.53257560  0.87982908  1  0  0.439099  0  0.857385  0  0  0.412213  0  0.91376  0  0  0.421656  0  0.899906  0  0  0.305713  0.405673  0  0.923377  0
H  H16  1  0.47780580  0.33115343  0.01035009  1  0  0.422412  0  0.87656  0  0  0.396474  0  0.933453  0  0  0.406524  0  0.918389  0  0  0.304063  0.389277  0  0.944245  0
H  H17  1  0.52219685  0.66884514  0.98964976  1  0  0.422437  0  0.876531  0  0  0.396485  0  0.933443  0  0  0.406536  0  0.918377  0  0  0.304081  0.389287  0  0.944236  0
C  C18  1  0.28415690  0.87768771  0.69089165  1  0  0.766426  0  3.794823  0  0  0.719347  0  4.093924  0  0  0.752316  0  4.084304  0  0  0.24799  0.696866  0  4.099829  0
C  C19  1  0.71584213  0.12231526  0.30910681  1  0  0.76639  0  3.794822  0  0  0.71931  0  4.093969  0  0  0.752279  0  4.084349  0  0  0.248015  0.696828  0  4.099873  0
C  C20  1  0.07918715  0.72809103  0.65329033  1  0  -0.290396  0  3.63723  0  0  -0.333587  0  3.882843  0  0  -0.339821  0  3.89047  0  0  -0.143994  -0.329218  0  3.87732  0
C  C21  1  0.92081562  0.27191033  0.34671015  1  0  -0.29034  0  3.637016  0  0  -0.333447  0  3.882727  0  0  -0.339681  0  3.890358  0  0  -0.143958  -0.329083  0  3.877205  0
C  C22  1  0.10879814  0.57244771  0.51092761  1  0  -0.110561  0  3.627591  0  0  -0.117736  0  3.863666  0  0  -0.122595  0  3.87777  0  0  -0.074181  -0.114639  0  3.854081  0
C  C23  1  0.89120108  0.42755672  0.48906906  1  0  -0.110445  0  3.627375  0  0  -0.117906  0  3.863786  0  0  -0.122764  0  3.87789  0  0  -0.074146  -0.114804  0  3.854197  0
C  C24  1  0.10282317  0.64786532  0.37326347  1  0  0.707133  0  3.862061  0  0  0.661517  0  4.165672  0  0  0.693468  0  4.156491  0  0  0.231431  0.639922  0  4.171305  0
C  C25  1  0.89717555  0.35213615  0.62673891  1  0  0.707199  0  3.861948  0  0  0.661605  0  4.165658  0  0  0.693557  0  4.156474  0  0  0.23147  0.64001  0  4.171291  0
O  O26  1  0.75016144  0.15329226  0.94400383  1  0  -0.913697  0  1.817088  0  0  -0.870199  0  1.993021  0  0  -0.887229  0  1.958365  0  0  -0.638741  -0.858137  0  2.017062  0
O  O27  1  0.24984114  0.84670628  0.05599707  1  0  -0.913625  0  1.817119  0  0  -0.870104  0  1.993083  0  0  -0.887135  0  1.958424  0  0  -0.638716  -0.858035  0  2.017107  0
O  O28  1  0.29272713  0.37130406  0.02435297  1  0  -0.916146  0  1.748052  0  0  -0.872234  0  1.902855  0  0  -0.887862  0  1.871691  0  0  -0.657227  -0.861109  0  1.924353  0
O  O29  1  0.70727565  0.62869593  0.97564614  1  0  -0.916165  0  1.748038  0  0  -0.872241  0  1.902858  0  0  -0.887869  0  1.871694  0  0  -0.657247  -0.861114  0  1.92435  0
O  O30  1  0.30700841  0.62170144  0.30001536  1  0  -0.745627  0  1.95657  0  0  -0.695208  0  2.18827  0  0  -0.716506  0  2.174239  0  0  -0.381814  -0.680905  0  2.197719  0
O  O31  1  0.69298264  0.37830318  0.69998616  1  0  -0.745691  0  1.956477  0  0  -0.695258  0  2.18816  0  0  -0.716562  0  2.174137  0  0  -0.381885  -0.680954  0  2.19761  0
O  O32  1  0.43083018  0.90029280  0.59476034  1  0  -0.766948  0  1.956106  0  0  -0.720847  0  2.198908  0  0  -0.741713  0  2.184159  0  0  -0.409883  -0.706289  0  2.208781  0
O  O33  1  0.56916658  0.09970875  0.40524194  1  0  -0.767008  0  1.955917  0  0  -0.720902  0  2.198734  0  0  -0.741767  0  2.183982  0  0  -0.409968  -0.706342  0  2.208609  0
O  O34  1  0.89535706  0.73024630  0.33443422  1  0  -0.765069  0  1.952937  0  0  -0.721694  0  2.194235  0  0  -0.742579  0  2.181325  0  0  -0.422971  -0.707228  0  2.202454  0
O  O35  1  0.10463589  0.26975411  0.66556434  1  0  -0.765068  0  1.953054  0  0  -0.721673  0  2.194363  0  0  -0.742555  0  2.181452  0  0  -0.422945  -0.707209  0  2.202583  0
O  O36  1  0.29378908  0.98555692  0.82284701  1  0  -0.735898  0  2.042475  0  0  -0.670032  0  2.266053  0  0  -0.695343  0  2.253133  0  0  -0.344887  -0.652175  0  2.274178  0
O  O37  1  0.70621155  0.01444718  0.17715929  1  0  -0.735803  0  2.042631  0  0  -0.669983  0  2.266261  0  0  -0.695294  0  2.253342  0  0  -0.34485  -0.652137  0  2.274405  0
