# generated using pymatgen
data_ZnP2H4(CN)4
_symmetry_space_group_name_H-M   'P 1'
_cell_length_a   7.40357597
_cell_length_b   8.05541831
_cell_length_c   8.74883958
_cell_angle_alpha   117.34377334
_cell_angle_beta   115.02357347
_cell_angle_gamma   89.99068544
_symmetry_Int_Tables_number   1
_chemical_formula_structural   ZnP2H4(CN)4
_chemical_formula_sum   'Zn2 P4 H8 C8 N8'
_cell_volume   407.56948164
_cell_formula_units_Z   2
loop_
 _symmetry_equiv_pos_site_id
 _symmetry_equiv_pos_as_xyz
  1  'x, y, z'
loop_
 _atom_site_type_symbol
 _atom_site_label
 _atom_site_symmetry_multiplicity
 _atom_site_fract_x
 _atom_site_fract_y
 _atom_site_fract_z
 _atom_site_occupancy
 _atom_site_pbe_bader_spin_density
 _atom_site_pbe_cm5_charge
 _atom_site_pbe_ddec_charge
 _atom_site_pbe_ddec_spin_density
 _atom_site_pbe_ddec_sum_bond_order
 _atom_site_pbe_magmom
Zn  Zn0  1  0.25008284  0.00004830  0.00006964  1  0  0.730042  0.584789  0  2.526398  0
Zn  Zn1  1  0.74992401  0.99995048  0.99993046  1  0  0.730028  0.584805  0  2.526461  0
P  P2  1  0.19081834  0.78873142  0.38195573  1  0  -0.038361  0.059828  0  3.133387  0
P  P3  1  0.80917989  0.21127451  0.61804554  1  0  -0.038374  0.059855  0  3.133279  0
P  P4  1  0.30942535  0.40753271  0.61866620  1  0  -0.038576  0.059354  0  3.134459  0
P  P5  1  0.69057175  0.59246307  0.38132705  1  0  -0.03857  0.059399  0  3.134428  0
H  H6  1  0.44441526  0.85141054  0.27730399  1  0  0.101964  0.099074  0  1.069967  0
H  H7  1  0.16769631  0.14923571  0.72355329  1  0  0.10203  0.099207  0  1.070287  0
H  H8  1  0.05598498  0.57459533  0.72358884  1  0  0.101808  0.098915  0  1.069919  0
H  H9  1  0.33237092  0.42533044  0.27646330  1  0  0.102013  0.099328  0  1.069335  0
H  H10  1  0.55558119  0.14859398  0.72269837  1  0  0.101952  0.09902  0  1.070012  0
H  H11  1  0.83230613  0.85076309  0.27644761  1  0  0.102035  0.099235  0  1.070271  0
H  H12  1  0.94401446  0.42539765  0.27640634  1  0  0.101837  0.098919  0  1.069865  0
H  H13  1  0.66761962  0.57465673  0.72352644  1  0  0.101958  0.099205  0  1.069371  0
C  C14  1  0.29296911  0.85750871  0.26668985  1  0  -0.000162  -0.146  0  3.993541  0
C  C15  1  0.02660546  0.14274023  0.73367171  1  0  -0.000963  -0.146969  0  3.994946  0
C  C16  1  0.20728677  0.59133633  0.73394666  1  0  8.4e-05  -0.145137  0  3.994945  0
C  C17  1  0.47336389  0.40859634  0.26613191  1  0  -0.000573  -0.146731  0  3.997028  0
C  C18  1  0.70703371  0.14249733  0.73331645  1  0  -0.000143  -0.145968  0  3.99349  0
C  C19  1  0.97339408  0.85725860  0.26633049  1  0  -0.00093  -0.146906  0  3.994989  0
C  C20  1  0.79271651  0.40866543  0.26605917  1  0  0.000101  -0.145081  0  3.994883  0
C  C21  1  0.52662445  0.59140072  0.73385431  1  0  -0.000455  -0.146468  0  3.996902  0
N  N22  1  0.17049788  0.92552674  0.15678145  1  0  -0.265169  -0.128802  0  3.617803  0
N  N23  1  0.01379247  0.07464692  0.84344901  1  0  -0.264335  -0.128325  0  3.616339  0
N  N24  1  0.32962149  0.76898791  0.84351819  1  0  -0.26543  -0.130255  0  3.617727  0
N  N25  1  0.48617387  0.23101138  0.15642305  1  0  -0.264336  -0.1283  0  3.618286  0
N  N26  1  0.82950343  0.07447348  0.84321965  1  0  -0.265171  -0.128773  0  3.617763  0
N  N27  1  0.98621115  0.92535048  0.15655285  1  0  -0.264391  -0.128402  0  3.616543  0
N  N28  1  0.67038917  0.23101263  0.15649766  1  0  -0.265498  -0.130366  0  3.61783  0
N  N29  1  0.51382164  0.76899132  0.84356109  1  0  -0.264415  -0.12845  0  3.618322  0
