# generated using pymatgen
data_Cu2H3C3I2N3
_symmetry_space_group_name_H-M   'P 1'
_cell_length_a   6.81605874
_cell_length_b   7.61315978
_cell_length_c   8.58143505
_cell_angle_alpha   116.28398459
_cell_angle_beta   89.99942181
_cell_angle_gamma   90.00035596
_symmetry_Int_Tables_number   1
_chemical_formula_structural   Cu2H3C3I2N3
_chemical_formula_sum   'Cu4 H6 C6 I4 N6'
_cell_volume   399.26559207
_cell_formula_units_Z   2
loop_
 _symmetry_equiv_pos_site_id
 _symmetry_equiv_pos_as_xyz
  1  'x, y, z'
loop_
 _atom_site_type_symbol
 _atom_site_label
 _atom_site_symmetry_multiplicity
 _atom_site_fract_x
 _atom_site_fract_y
 _atom_site_fract_z
 _atom_site_occupancy
 _atom_site_hle17_bader_spin_density
 _atom_site_hle17_ddec_charge
 _atom_site_hle17_ddec_spin_density
 _atom_site_hle17_ddec_sum_bond_order
 _atom_site_hle17_magmom
 _atom_site_hse06_10hf_bader_spin_density
 _atom_site_hse06_10hf_ddec_charge
 _atom_site_hse06_10hf_ddec_spin_density
 _atom_site_hse06_10hf_ddec_sum_bond_order
 _atom_site_hse06_10hf_magmom
 _atom_site_hse06_bader_spin_density
 _atom_site_hse06_ddec_charge
 _atom_site_hse06_ddec_spin_density
 _atom_site_hse06_ddec_sum_bond_order
 _atom_site_hse06_magmom
 _atom_site_pbe_bader_spin_density
 _atom_site_pbe_cm5_charge
 _atom_site_pbe_ddec_charge
 _atom_site_pbe_ddec_spin_density
 _atom_site_pbe_ddec_sum_bond_order
 _atom_site_pbe_magmom
Cu  Cu0  1  0.78520894  0.02854335  0.37546827  1  0  0.304401  0  2.155681  0  0  0.233126  0  2.637856  0  0  0.237799  0  2.593549  0  0  0.248207  0.23353  0  2.66511  0
Cu  Cu1  1  0.28520949  0.97145432  0.62453811  1  0  0.304379  0  2.155752  0  0  0.233111  0  2.637941  0  0  0.237788  0  2.59363  0  0  0.248202  0.233518  0  2.665184  0
Cu  Cu2  1  0.28506939  0.34720123  0.37578555  1  0  0.304153  0  2.157005  0  0  0.232868  0  2.639131  0  0  0.237526  0  2.594848  0  0  0.248473  0.233305  0  2.666414  0
Cu  Cu3  1  0.78506882  0.65279212  0.62420979  1  0  0.304106  0  2.15714  0  0  0.232876  0  2.639209  0  0  0.237511  0  2.594905  0  0  0.248483  0.233315  0  2.666487  0
H  H4  1  0.06407988  0.40946153  0.72928407  1  0  0.062136  0  0.953175  0  0  0.065241  0  1.029317  0  0  0.069716  0  1.021703  0  0  0.107185  0.061173  0  1.035766  0
H  H5  1  0.56409031  0.59054175  0.27071536  1  0  0.062124  0  0.953145  0  0  0.065199  0  1.029342  0  0  0.069675  0  1.021726  0  0  0.107156  0.061127  0  1.035796  0
H  H6  1  0.56449477  0.31947871  0.72919999  1  0  0.062583  0  0.953309  0  0  0.06528  0  1.02963  0  0  0.069881  0  1.021922  0  0  0.107356  0.061139  0  1.036126  0
H  H7  1  0.06449847  0.68053781  0.27079772  1  0  0.062605  0  0.953323  0  0  0.06532  0  1.029636  0  0  0.06992  0  1.021928  0  0  0.107353  0.061179  0  1.036128  0
H  H8  1  0.73173552  0.91252719  0.99974154  1  0  0.073688  0  0.908614  0  0  0.078974  0  0.979294  0  0  0.082801  0  0.973583  0  0  0.119637  0.075652  0  0.984042  0
H  H9  1  0.23176628  0.08745726  0.00025407  1  0  0.07376  0  0.908704  0  0  0.079032  0  0.979386  0  0  0.082865  0  0.973664  0  0  0.119662  0.075704  0  0.984145  0
C  C10  1  0.01580076  0.52668605  0.85297429  1  0  0.340081  0  3.644721  0  0  0.289566  0  3.914038  0  0  0.310887  0  3.918598  0  0  0.179881  0.27452  0  3.912684  0
C  C11  1  0.51582390  0.47333050  0.14701089  1  0  0.340127  0  3.644974  0  0  0.289588  0  3.914251  0  0  0.310908  0  3.918813  0  0  0.179929  0.274549  0  3.912883  0
C  C12  1  0.51603179  0.32609638  0.85293994  1  0  0.339073  0  3.646646  0  0  0.28914  0  3.915692  0  0  0.310359  0  3.920234  0  0  0.179382  0.274127  0  3.91438  0
C  C13  1  0.01604181  0.67389806  0.14705393  1  0  0.339036  0  3.646796  0  0  0.289042  0  3.915905  0  0  0.310257  0  3.920451  0  0  0.179359  0.274034  0  3.914586  0
C  C14  1  0.83361943  0.80201131  0.99981784  1  0  0.345249  0  3.627513  0  0  0.283842  0  3.90044  0  0  0.304951  0  3.903691  0  0  0.184851  0.26934  0  3.900075  0
C  C15  1  0.33364088  0.19798776  0.00020513  1  0  0.345274  0  3.62784  0  0  0.283848  0  3.900737  0  0  0.304959  0  3.903989  0  0  0.184826  0.269344  0  3.900371  0
I  I16  1  0.40258761  0.00980095  0.35574501  1  0  -0.386088  0  1.979078  0  0  -0.339758  0  2.514468  0  0  -0.355005  0  2.464612  0  0  -0.174297  -0.328148  0  2.546464  0
I  I17  1  0.90258819  0.99019541  0.64426249  1  0  -0.386081  0  1.979117  0  0  -0.339742  0  2.514467  0  0  -0.354982  0  2.464602  0  0  -0.17429  -0.328129  0  2.546462  0
I  I18  1  0.90251728  0.34610258  0.35560244  1  0  -0.385899  0  1.980256  0  0  -0.339478  0  2.515535  0  0  -0.354726  0  2.465698  0  0  -0.174155  -0.327844  0  2.547497  0
I  I19  1  0.40251474  0.65389534  0.64439403  1  0  -0.385912  0  1.98029  0  0  -0.339488  0  2.515569  0  0  -0.35474  0  2.465733  0  0  -0.174157  -0.327853  0  2.547526  0
N  N20  1  0.89205706  0.66159007  0.84589916  1  0  -0.351253  0  3.31876  0  0  -0.272123  0  3.60565  0  0  -0.289898  0  3.608903  0  0  -0.35773  -0.262359  0  3.605109  0
N  N21  1  0.39206845  0.33839757  0.15409445  1  0  -0.351379  0  3.319052  0  0  -0.27211  0  3.605751  0  0  -0.289894  0  3.609027  0  0  -0.35768  -0.262343  0  3.605208  0
N  N22  1  0.39211797  0.18429170  0.84614774  1  0  -0.351896  0  3.319664  0  0  -0.272962  0  3.606394  0  0  -0.290805  0  3.609766  0  0  -0.357803  -0.263071  0  3.605654  0
N  N23  1  0.89210290  0.81570773  0.15384124  1  0  -0.351821  0  3.319717  0  0  -0.272823  0  3.606404  0  0  -0.290667  0  3.609783  0  0  -0.357772  -0.262936  0  3.605658  0
N  N24  1  0.07953653  0.52731667  0.00012349  1  0  -0.356247  0  3.018041  0  0  -0.313799  0  3.28856  0  0  -0.333559  0  3.301643  0  0  -0.311012  -0.301452  0  3.281361  0
N  N25  1  0.57953275  0.47269533  0.99989097  1  0  -0.356197  0  3.018239  0  0  -0.31377  0  3.288735  0  0  -0.33353  0  3.301814  0  0  -0.311047  -0.301419  0  3.281541  0
