# generated using pymatgen
data_FeH8PtC14(N3Cl)2
_symmetry_space_group_name_H-M   'P 1'
_cell_length_a   6.88751709
_cell_length_b   7.33636411
_cell_length_c   8.53248663
_cell_angle_alpha   98.60264561
_cell_angle_beta   113.76490447
_cell_angle_gamma   89.99995227
_symmetry_Int_Tables_number   1
_chemical_formula_structural   FeH8PtC14(N3Cl)2
_chemical_formula_sum   'Fe1 H8 Pt1 C14 N6 Cl2'
_cell_volume   389.27719817
_cell_formula_units_Z   1
loop_
 _symmetry_equiv_pos_site_id
 _symmetry_equiv_pos_as_xyz
  1  'x, y, z'
loop_
 _atom_site_type_symbol
 _atom_site_label
 _atom_site_symmetry_multiplicity
 _atom_site_fract_x
 _atom_site_fract_y
 _atom_site_fract_z
 _atom_site_occupancy
 _atom_site_pbe_bader_spin_density
 _atom_site_pbe_cm5_charge
 _atom_site_pbe_ddec_charge
 _atom_site_pbe_ddec_spin_density
 _atom_site_pbe_ddec_sum_bond_order
 _atom_site_pbe_magmom
Fe  Fe0  1  0.49999828  0.50000084  0.00000061  1  0  0.888364  0.570864  0  3.940742  0
H  H1  1  0.38742167  0.78267565  0.77427565  1  0  0.125194  0.112424  0  1.004091  0
H  H2  1  0.61258003  0.21732302  0.22572411  1  0  0.125183  0.112416  0  1.004112  0
H  H3  1  0.12323031  0.49499326  0.24593880  1  0  0.118274  0.144084  0  0.96725  0
H  H4  1  0.87677615  0.50500541  0.75406252  1  0  0.118246  0.144025  0  0.967294  0
H  H5  1  0.18291816  0.19909645  0.36526040  1  0  0.088082  0.088432  0  1.079293  0
H  H6  1  0.81708672  0.80090222  0.63474040  1  0  0.088097  0.088461  0  1.079308  0
H  H7  1  0.34449515  0.20880022  0.68879939  1  0  0.113907  0.087975  0  1.029556  0
H  H8  1  0.65550654  0.79119845  0.31120154  1  0  0.113889  0.087958  0  1.029527  0
Pt  Pt9  1  0.99999481  0.00000143  0.99999745  1  0  0.520001  0.104352  0  4.723421  0
C  C10  1  0.34103339  0.65516943  0.68157105  1  0  0.041294  0.006087  0  3.899072  0
C  C11  1  0.65896672  0.34482924  0.31842936  1  0  0.041323  0.006137  0  3.89898  0
C  C12  1  0.25214463  0.65829594  0.50396607  1  0  0.015835  0.10442  0  4.069668  0
C  C13  1  0.74785707  0.34170273  0.49603486  1  0  0.015836  0.104401  0  4.069666  0
C  C14  1  0.19288975  0.49447708  0.38527390  1  0  -0.071657  -0.089409  0  3.903564  0
C  C15  1  0.80711353  0.50552160  0.61472638  1  0  -0.071608  -0.089272  0  3.903535  0
C  C16  1  0.22701260  0.33062281  0.45342161  1  0  -0.087498  -0.112756  0  4.000893  0
C  C17  1  0.77299080  0.66937725  0.54657772  1  0  -0.087518  -0.112856  0  4.000996  0
C  C18  1  0.31629990  0.33462002  0.63215803  1  0  0.040517  0.062939  0  3.909432  0
C  C19  1  0.68370180  0.66537865  0.36784290  1  0  0.040515  0.063  0  3.909438  0
C  C20  1  0.80970916  0.80738377  0.01466552  1  0  -0.005267  0.025973  0  3.915344  0
C  C21  1  0.79516699  0.19273211  0.98512595  1  0  -0.004749  0.027735  0  3.914975  0
C  C22  1  0.19028143  0.19261491  0.98533177  1  0  -0.005301  0.025986  0  3.915156  0
C  C23  1  0.20482466  0.80725966  0.01486960  1  0  -0.004685  0.027845  0  3.915101  0
N  N24  1  0.37279677  0.49513330  0.74523523  1  0  -0.322597  -0.124468  0  3.605583  0
N  N25  1  0.62720186  0.50486676  0.25476488  1  0  -0.32261  -0.124527  0  3.605549  0
N  N26  1  0.70144943  0.68665158  0.01902193  1  0  -0.390804  -0.300075  0  3.620071  0
N  N27  1  0.68255111  0.31345843  0.98088580  1  0  -0.391194  -0.301564  0  3.620209  0
N  N28  1  0.29855112  0.31335262  0.98097817  1  0  -0.39076  -0.300091  0  3.619891  0
N  N29  1  0.31743693  0.68654853  0.01911524  1  0  -0.391192  -0.301616  0  3.620406  0
Cl  Cl30  1  0.21753662  0.86914186  0.43502362  1  0  0.026451  -0.069429  0  1.724787  0
Cl  Cl31  1  0.78246835  0.13085818  0.56497974  1  0  0.026434  -0.069452  0  1.724823  0
