# generated using pymatgen
data_VH2C2NOF2
_symmetry_space_group_name_H-M   'P 1'
_cell_length_a   4.95791104
_cell_length_b   7.24392482
_cell_length_c   10.90283642
_cell_angle_alpha   90.00001382
_cell_angle_beta   90.00000646
_cell_angle_gamma   95.77685219
_symmetry_Int_Tables_number   1
_chemical_formula_structural   VH2C2NOF2
_chemical_formula_sum   'V4 H8 C8 N4 O4 F8'
_cell_volume   389.58386004
_cell_formula_units_Z   4
loop_
 _symmetry_equiv_pos_site_id
 _symmetry_equiv_pos_as_xyz
  1  'x, y, z'
loop_
 _atom_site_type_symbol
 _atom_site_label
 _atom_site_symmetry_multiplicity
 _atom_site_fract_x
 _atom_site_fract_y
 _atom_site_fract_z
 _atom_site_occupancy
 _atom_site_hle17_ddec_charge
 _atom_site_hle17_ddec_spin_density
 _atom_site_hle17_ddec_sum_bond_order
 _atom_site_hle17_magmom
 _atom_site_hse06_10hf_ddec_charge
 _atom_site_hse06_10hf_ddec_spin_density
 _atom_site_hse06_10hf_ddec_sum_bond_order
 _atom_site_hse06_10hf_magmom
 _atom_site_hse06_ddec_charge
 _atom_site_hse06_ddec_spin_density
 _atom_site_hse06_ddec_sum_bond_order
 _atom_site_hse06_magmom
 _atom_site_pbe_cm5_charge
 _atom_site_pbe_ddec_charge
 _atom_site_pbe_ddec_spin_density
 _atom_site_pbe_ddec_sum_bond_order
 _atom_site_pbe_magmom
V  V0  1  0.22004598  0.90586688  0.93028186  1  1.738522  1.323149  2.581066  1.255  1.748191  1.0582  2.997091  1.009  1.838711  1.129477  2.941977  1.08  1.296587  1.688922  0.97321  3.039819  0.925
V  V1  1  0.77995306  0.59413264  0.43028627  1  1.738436  -1.323104  2.581252  -1.255  1.748096  -1.058178  2.997251  -1.009  1.838666  -1.12946  2.942059  -1.08  1.296556  1.688919  -0.973193  3.039834  -0.925
V  V2  1  0.77995817  0.09413207  0.06971492  1  1.738501  -1.3231  2.581166  -1.255  1.748184  -1.058177  2.997173  -1.009  1.838769  -1.12945  2.941941  -1.08  1.296598  1.689003  -0.973197  3.039742  -0.925
V  V3  1  0.22003878  0.40586493  0.56972335  1  1.738568  1.323092  2.581136  1.255  1.748189  1.058173  2.997213  1.009  1.838775  1.129443  2.941974  1.08  1.296637  1.689049  0.973193  3.039732  0.925
H  H4  1  0.56519220  0.64562998  0.79959384  1  0.117142  -0.001233  0.936972  -0.001  0.120591  -0.000279  1.001511  0.0  0.125022  -0.000362  0.996602  0.0  0.131365  0.116062  -0.000175  1.007307  0.0
H  H5  1  0.43480701  0.85437088  0.29960011  1  0.117106  0.001233  0.936974  0.001  0.120514  0.000279  1.001553  0.0  0.124944  0.000362  0.996646  0.0  0.131362  0.115985  0.000175  1.007348  0.0
H  H6  1  0.43481215  0.35437035  0.20039927  1  0.11708  0.001233  0.936966  0.001  0.120495  0.000279  1.001554  0.0  0.124927  0.000362  0.996647  0.0  0.131344  0.115968  0.000175  1.007349  0.0
H  H7  1  0.56518968  0.14563224  0.70040493  1  0.11714  -0.001234  0.936951  -0.001  0.120597  -0.000279  1.001496  0.0  0.125028  -0.000362  0.996585  0.0  0.131366  0.116067  -0.000175  1.007291  0.0
H  H8  1  0.20594029  0.63580970  0.14713425  1  0.12798  4.6e-05  0.931928  -0.001  0.134485  0.000805  0.992221  0.0  0.139712  0.000743  0.986864  0.0  0.129657  0.129406  0.00084  0.99819  0.0
H  H9  1  0.79406112  0.86419249  0.64714088  1  0.127999  -4.5e-05  0.931931  0.001  0.134483  -0.000805  0.992219  0.0  0.139708  -0.000742  0.986865  0.0  0.129635  0.129403  -0.00084  0.998188  0.0
H  H10  1  0.79406386  0.36418924  0.85285886  1  0.127974  -4.6e-05  0.93194  0.001  0.134488  -0.000805  0.992216  0.0  0.139713  -0.000742  0.986862  0.0  0.129627  0.129405  -0.000839  0.998182  0.0
H  H11  1  0.20593356  0.13581063  0.35286508  1  0.127983  4.6e-05  0.931931  -0.001  0.134486  0.000805  0.992212  0.0  0.139712  0.000742  0.986855  0.0  0.129642  0.129406  0.00084  0.99818  0.0
C  C12  1  0.53518408  0.58052569  0.88893022  1  0.125745  0.03563  3.600549  0.028  0.097269  0.020615  3.865308  0.016  0.106683  0.019509  3.870508  0.015  0.070525  0.086413  0.022993  3.871792  0.018
C  C13  1  0.46481473  0.91947242  0.38893375  1  0.125855  -0.035641  3.600617  -0.028  0.097404  -0.020613  3.865373  -0.016  0.106822  -0.019505  3.870573  -0.015  0.070537  0.086554  -0.022993  3.871857  -0.018
C  C14  1  0.46482006  0.41947325  0.11106473  1  0.125947  -0.035637  3.600465  -0.028  0.097493  -0.020613  3.865231  -0.016  0.106903  -0.019502  3.870442  -0.015  0.07068  0.086638  -0.022994  3.871726  -0.018
C  C15  1  0.53517953  0.08052792  0.61106945  1  0.125801  0.035653  3.600565  0.028  0.097277  0.020616  3.865346  0.016  0.106696  0.019507  3.870545  0.015  0.070546  0.086428  0.022997  3.871835  0.018
C  C16  1  0.33928861  0.57610662  0.08186316  1  0.122282  0.033463  3.563355  0.026  0.092257  0.018984  3.824606  0.015  0.100698  0.01776  3.829386  0.014  0.066228  0.082036  0.021318  3.831862  0.017
C  C17  1  0.66071258  0.92389416  0.58186795  1  0.122309  -0.033474  3.563573  -0.026  0.092377  -0.018985  3.824731  -0.015  0.100816  -0.017761  3.829511  -0.014  0.066378  0.082156  -0.021322  3.831987  -0.017
C  C18  1  0.66071554  0.42389233  0.91813087  1  0.122373  -0.033451  3.563484  -0.026  0.092346  -0.018984  3.82474  -0.015  0.100783  -0.017757  3.829525  -0.014  0.06638  0.082138  -0.021319  3.831986  -0.017
C  C19  1  0.33928593  0.07610756  0.41813341  1  0.122299  0.033467  3.563396  0.026  0.092319  0.018985  3.82459  0.015  0.100757  0.017757  3.829369  0.014  0.066331  0.0821  0.021319  3.831845  0.017
N  N20  1  0.37484421  0.65696079  0.97060896  1  -0.328695  -0.037716  3.305506  -0.053  -0.300111  -0.01466  3.59795  -0.032  -0.315002  -0.015179  3.610246  -0.031  -0.381005  -0.297357  -0.015522  3.599561  -0.033
N  N21  1  0.62515706  0.84304012  0.47061616  1  -0.328824  0.03772  3.305748  0.053  -0.300277  0.014653  3.598171  0.032  -0.315181  0.01518  3.610466  0.031  -0.381076  -0.297537  0.015519  3.599777  0.033
N  N22  1  0.62516195  0.34303815  0.02938507  1  -0.328884  0.037708  3.305629  0.053  -0.300305  0.014653  3.59809  0.032  -0.315207  0.015172  3.610387  0.031  -0.381093  -0.29757  0.01552  3.599697  0.033
N  N23  1  0.37483964  0.15696299  0.52939071  1  -0.328741  -0.037727  3.30553  -0.053  -0.300188  -0.014657  3.598009  -0.032  -0.315092  -0.015176  3.6103  -0.031  -0.381034  -0.297457  -0.015523  3.599616  -0.033
O  O24  1  0.11143504  0.84568745  0.79672486  1  -0.639354  -0.277337  1.299512  -0.269  -0.676147  -0.114903  1.566439  -0.114  -0.717642  -0.147486  1.557062  -0.148  -0.560659  -0.641814  -0.094774  1.57223  -0.093
O  O25  1  0.88856257  0.65431618  0.29673113  1  -0.639274  0.277304  1.299527  0.269  -0.676061  0.114898  1.566464  0.114  -0.717572  0.147478  1.557075  0.148  -0.560621  -0.641747  0.094767  1.572235  0.093
O  O26  1  0.88856347  0.15431428  0.20326917  1  -0.639314  0.277298  1.299549  0.269  -0.676118  0.114888  1.566482  0.114  -0.717634  0.147471  1.557083  0.148  -0.560665  -0.641808  0.094764  1.572251  0.093
O  O27  1  0.11143009  0.34568693  0.70327758  1  -0.639375  -0.27729  1.299532  -0.269  -0.676157  -0.114885  1.566495  -0.114  -0.71767  -0.147459  1.557096  -0.148  -0.560722  -0.641855  -0.094759  1.572258  -0.093
F  F28  1  0.91332948  0.84512996  0.04178006  1  -0.611862  0.00191  0.946679  0.0  -0.587111  0.004584  1.148153  0.002  -0.618947  0.004064  1.133226  0.002  -0.373379  -0.559645  0.004708  1.157319  0.002
F  F29  1  0.08667309  0.65486664  0.54178476  1  -0.611871  -0.001912  0.946724  0.0  -0.58708  -0.004583  1.148181  -0.002  -0.618928  -0.004072  1.133248  -0.002  -0.373352  -0.559638  -0.004708  1.157332  -0.002
F  F30  1  0.08667668  0.15486899  0.95821489  1  -0.61192  -0.001912  0.946715  0.0  -0.587107  -0.004581  1.148138  -0.002  -0.618946  -0.004073  1.13321  -0.002  -0.373354  -0.559642  -0.004708  1.157301  -0.002
F  F31  1  0.91332701  0.34513230  0.45822027  1  -0.611865  0.001911  0.946704  0.0  -0.587091  0.004581  1.148167  0.002  -0.618938  0.004068  1.133231  0.002  -0.373365  -0.559649  0.004709  1.157317  0.002
F  F32  1  0.42395550  0.97877236  0.10871676  1  -0.651755  -0.017001  0.900894  -0.007  -0.629431  -0.030165  1.101525  -0.019  -0.659255  -0.026373  1.085874  -0.016  -0.379406  -0.604061  -0.032305  1.11223  -0.022
F  F33  1  0.57603963  0.52122843  0.60872056  1  -0.65178  0.017002  0.900963  0.007  -0.629453  0.030163  1.10161  0.019  -0.659282  0.026372  1.085953  0.016  -0.379413  -0.604103  0.032306  1.112303  0.022
F  F34  1  0.57605045  0.02122520  0.89127910  1  -0.651768  0.017  0.900911  0.007  -0.629465  0.030163  1.101577  0.019  -0.659283  0.02637  1.08593  0.016  -0.379422  -0.604089  0.032305  1.112286  0.022
F  F35  1  0.42395665  0.47877190  0.39128264  1  -0.65176  -0.017004  0.900907  -0.007  -0.629438  -0.030168  1.101549  -0.019  -0.659265  -0.026375  1.085893  -0.016  -0.379419  -0.604083  -0.032309  1.112245  -0.022
