# generated using pymatgen
data_CdHC2SN3
_symmetry_space_group_name_H-M   'P 1'
_cell_length_a   6.78664388
_cell_length_b   6.78652862
_cell_length_c   11.36493138
_cell_angle_alpha   80.99054346
_cell_angle_beta   80.99285786
_cell_angle_gamma   117.31388707
_symmetry_Int_Tables_number   1
_chemical_formula_structural   CdHC2SN3
_chemical_formula_sum   'Cd4 H4 C8 S4 N12'
_cell_volume   443.51129427
_cell_formula_units_Z   4
loop_
 _symmetry_equiv_pos_site_id
 _symmetry_equiv_pos_as_xyz
  1  'x, y, z'
loop_
 _atom_site_type_symbol
 _atom_site_label
 _atom_site_symmetry_multiplicity
 _atom_site_fract_x
 _atom_site_fract_y
 _atom_site_fract_z
 _atom_site_occupancy
 _atom_site_pbe_bader_charge
 _atom_site_pbe_bader_spin_density
 _atom_site_pbe_cm5_charge
 _atom_site_pbe_ddec_charge
 _atom_site_pbe_ddec_spin_density
 _atom_site_pbe_ddec_sum_bond_order
 _atom_site_pbe_magmom
Cd  Cd0  1  0.44522851  0.20878420  0.61024171  1  1.092301  0  0.712322  0.685211  0  2.308834  0
Cd  Cd1  1  0.79124006  0.55477015  0.88975205  1  1.092298  0  0.712343  0.685308  0  2.308859  0
Cd  Cd2  1  0.55475142  0.79127461  0.38977455  1  1.092404  0  0.712389  0.68522  0  2.309248  0
Cd  Cd3  1  0.20877203  0.44524659  0.11021889  1  1.092176  0  0.712343  0.685036  0  2.309203  0
H  H4  1  0.60504755  0.96481269  0.83559488  1  0.17999  0  0.101968  0.076596  0  1.112843  0
H  H5  1  0.03521903  0.39500478  0.66436613  1  0.180698  0  0.102048  0.076626  0  1.112693  0
H  H6  1  0.39496850  0.03515470  0.16436046  1  0.180978  0  0.102015  0.076718  0  1.112591  0
H  H7  1  0.96469621  0.60490804  0.33562408  1  0.180458  0  0.102017  0.076627  0  1.1128  0
C  C8  1  0.72993262  0.74232251  0.62791676  1  0.821708  0  0.184344  0.301677  0  4.159703  0
C  C9  1  0.63280496  0.90528233  0.75476820  1  0.945358  0  0.12694  0.146085  0  4.0108  0
C  C10  1  0.25769541  0.27007478  0.87209491  1  0.821591  0  0.184159  0.301452  0  4.159425  0
C  C11  1  0.09471930  0.36724228  0.74521919  1  0.944257  0  0.126939  0.146265  0  4.010285  0
C  C12  1  0.27006379  0.25772104  0.37210650  1  0.823946  0  0.184057  0.301141  0  4.158736  0
C  C13  1  0.36722402  0.09461295  0.24522635  1  0.946629  0  0.126578  0.145808  0  4.010014  0
C  C14  1  0.74225347  0.72994258  0.12791017  1  0.822423  0  0.184131  0.301222  0  4.158608  0
C  C15  1  0.90531311  0.63274481  0.25475855  1  0.94599  0  0.126569  0.145901  0  4.010686  0
S  S16  1  0.82864483  0.58155661  0.56281401  1  -0.290246  0  -0.215152  -0.415864  0  2.558851  0
S  S17  1  0.41846673  0.17135942  0.93718665  1  -0.290299  0  -0.215044  -0.415701  0  2.558932  0
S  S18  1  0.17130627  0.41861302  0.43721812  1  -0.292004  0  -0.214892  -0.415458  0  2.557487  0
S  S19  1  0.58142552  0.82868581  0.06277875  1  -0.291809  0  -0.214845  -0.415329  0  2.558204  0
N  N20  1  0.63419780  0.85158579  0.57148581  1  -0.757688  0  -0.27398  -0.248522  0  3.431871  0
N  N21  1  0.56993473  0.95345826  0.65382693  1  -0.789828  0  -0.268328  -0.19009  0  3.473223  0
N  N22  1  0.73321633  0.77442581  0.74369029  1  -1.201443  0  -0.368236  -0.355112  0  3.455032  0
N  N23  1  0.14841505  0.36581718  0.92853537  1  -0.757733  0  -0.273856  -0.248331  0  3.43145  0
N  N24  1  0.04657244  0.43007567  0.84617636  1  -0.789388  0  -0.268413  -0.190331  0  3.473518  0
N  N25  1  0.22559177  0.26684228  0.75630886  1  -1.201244  0  -0.368236  -0.355141  0  3.454943  0
N  N26  1  0.36582706  0.14841558  0.42852420  1  -0.758376  0  -0.27389  -0.248562  0  3.431236  0
N  N27  1  0.43011220  0.04651278  0.34618627  1  -0.788915  0  -0.268138  -0.189951  0  3.473234  0
N  N28  1  0.26684309  0.22551991  0.25635468  1  -1.204697  0  -0.367944  -0.354815  0  3.455171  0
N  N29  1  0.85158305  0.63417961  0.07148464  1  -0.758592  0  -0.273949  -0.248927  0  3.430816  0
N  N30  1  0.95349068  0.56987863  0.15382980  1  -0.788844  0  -0.268171  -0.189788  0  3.473049  0
N  N31  1  0.77443043  0.73316016  0.24367385  1  -1.202098  0  -0.368086  -0.354972  0  3.454783  0
