# generated using pymatgen
data_FeH4C8O5
_symmetry_space_group_name_H-M   'P 1'
_cell_length_a   6.36895393
_cell_length_b   6.98862101
_cell_length_c   10.36892750
_cell_angle_alpha   110.02424065
_cell_angle_beta   101.66830143
_cell_angle_gamma   89.64739622
_symmetry_Int_Tables_number   1
_chemical_formula_structural   FeH4C8O5
_chemical_formula_sum   'Fe2 H8 C16 O10'
_cell_volume   423.66245651
_cell_formula_units_Z   2
loop_
 _symmetry_equiv_pos_site_id
 _symmetry_equiv_pos_as_xyz
  1  'x, y, z'
loop_
 _atom_site_type_symbol
 _atom_site_label
 _atom_site_symmetry_multiplicity
 _atom_site_fract_x
 _atom_site_fract_y
 _atom_site_fract_z
 _atom_site_occupancy
 _atom_site_pbe_bader_charge
 _atom_site_pbe_bader_spin_density
 _atom_site_pbe_cm5_charge
 _atom_site_pbe_ddec_charge
 _atom_site_pbe_ddec_spin_density
 _atom_site_pbe_ddec_sum_bond_order
 _atom_site_pbe_magmom
Fe  Fe0  1  0.00000580  0.00000769  0.99999219  1  1.563739  0.404173  0.881322  1.14676  0.421448  3.508986  0.409
Fe  Fe1  1  0.50000141  0.00000825  0.00000064  1  1.573674  1.327933  0.891439  1.171176  1.507197  3.466705  1.323
H  H2  1  0.20843062  0.82384465  0.31904779  1  0.12067  0.000186  0.114807  0.126197  0.0001  0.984798  0.0
H  H3  1  0.62626828  0.08694713  0.42529285  1  0.104828  -8.3e-05  0.105851  0.108362  -9.9e-05  1.024875  0.0
H  H4  1  0.29436710  0.50356318  0.68120098  1  0.116497  0.00013  0.115087  0.126903  3.9e-05  0.984773  0.0
H  H5  1  0.87281497  0.66075674  0.57448486  1  0.111755  4e-06  0.106154  0.10877  -3e-06  1.024566  0.0
H  H6  1  0.79158640  0.17612608  0.68093709  1  0.119246  0.000186  0.114852  0.126355  0.0001  0.984769  0.0
H  H7  1  0.37373107  0.91302601  0.57469581  1  0.104072  -8.3e-05  0.105847  0.108417  -9.9e-05  1.024958  0.0
H  H8  1  0.70561739  0.49642764  0.31880751  1  0.116594  0.00013  0.115086  0.126967  3.9e-05  0.984964  0.0
H  H9  1  0.12717366  0.33922658  0.42552677  1  0.112148  4e-06  0.106207  0.108856  -3e-06  1.024627  0.0
C  C10  1  0.90696852  0.94751899  0.35738108  1  -0.021294  -0.002744  -0.004848  -0.027849  -0.003063  3.949421  -0.002
C  C11  1  0.11832799  0.89941610  0.39917583  1  0.028407  -0.00053  -0.07465  -0.089778  -0.000586  3.94805  0.0
C  C12  1  0.78897891  0.04810088  0.45881537  1  -0.106137  -0.00063  -0.078932  -0.09411  -0.000644  3.964864  0.0
C  C13  1  0.81916470  0.91435133  0.20597231  1  1.530019  -0.004125  0.245409  0.589281  -0.005349  4.078151  -0.003
C  C14  1  0.59417669  0.58886670  0.64265826  1  -0.058289  -0.00221  -0.004725  -0.027995  -0.002429  3.951099  -0.002
C  C15  1  0.38325370  0.49960442  0.60096553  1  0.027974  8.5e-05  -0.074524  -0.09016  -9.4e-05  3.947909  0.0
C  C16  1  0.71050065  0.58872428  0.54108239  1  -0.075652  -0.000767  -0.078422  -0.09339  -0.00078  3.965794  0.0
C  C17  1  0.68339696  0.70653402  0.79421737  1  1.528084  -0.002726  0.242912  0.585018  -0.00373  4.082743  -0.002
C  C18  1  0.09303055  0.05247026  0.64260237  1  -0.021182  -0.002746  -0.004758  -0.027703  -0.003064  3.949497  -0.002
C  C19  1  0.88168765  0.10056269  0.60082411  1  0.030194  -0.000529  -0.074808  -0.090111  -0.000585  3.948584  0.0
C  C20  1  0.21103376  0.95187620  0.54118588  1  -0.105346  -0.000629  -0.078941  -0.094159  -0.000643  3.964846  0.0
C  C21  1  0.18083433  0.08566417  0.79402446  1  1.529782  -0.004125  0.245305  0.589045  -0.00535  4.0783  -0.003
C  C22  1  0.40580540  0.41113926  0.35736030  1  -0.057678  -0.002211  -0.004641  -0.027832  -0.00243  3.950969  -0.002
C  C23  1  0.61674543  0.50038426  0.39904240  1  0.02749  8.6e-05  -0.07458  -0.090332  -9.3e-05  3.948297  0.0
C  C24  1  0.28948724  0.41126100  0.45892081  1  -0.076229  -0.000767  -0.078604  -0.093733  -0.00078  3.965979  0.0
C  C25  1  0.31660039  0.29348611  0.20578530  1  1.528074  -0.002725  0.242868  0.58498  -0.003729  4.082212  -0.002
O  O26  1  0.94970977  0.85756154  0.12349376  1  -1.051895  0.015421  -0.274386  -0.465392  0.007057  2.344925  0.012
O  O27  1  0.62398935  0.95502198  0.17348393  1  -1.047902  -0.012463  -0.260727  -0.449402  -0.014134  2.351639  -0.013
O  O28  1  0.55372191  0.73283678  0.87746512  1  -1.039762  0.003561  -0.272451  -0.464137  -0.002557  2.336902  0.0
O  O29  1  0.87791523  0.77871625  0.82656756  1  -1.053191  0.000704  -0.259433  -0.444828  -0.001748  2.358846  0.001
O  O30  1  0.05030268  0.14247059  0.87651157  1  -1.051739  0.015434  -0.274338  -0.465246  0.007063  2.345113  0.012
O  O31  1  0.37602190  0.04500082  0.82651394  1  -1.047699  -0.012467  -0.260666  -0.449323  -0.014139  2.351514  -0.013
O  O32  1  0.44628478  0.26718408  0.12253385  1  -1.039794  0.003559  -0.272466  -0.464174  -0.002559  2.336631  0.0
O  O33  1  0.12208327  0.22128995  0.17343210  1  -1.053098  0.000697  -0.259388  -0.444792  -0.001754  2.358771  0.001
O  O34  1  0.24978167  0.89496772  0.00017896  1  -0.683151  0.140138  -0.433474  -0.556318  0.063705  1.955644  0.111
O  O35  1  0.75022628  0.10505763  0.99982135  1  -0.683209  0.14013  -0.433382  -0.556322  0.063695  1.955419  0.111
