# generated using pymatgen
data_CoH4(C2O3)2
_symmetry_space_group_name_H-M   'P 1'
_cell_length_a   4.95373846
_cell_length_b   7.81067134
_cell_length_c   7.81055261
_cell_angle_alpha   71.86712307
_cell_angle_beta   71.55804593
_cell_angle_gamma   71.55820379
_symmetry_Int_Tables_number   1
_chemical_formula_structural   CoH4(C2O3)2
_chemical_formula_sum   'Co2 H8 C8 O12'
_cell_volume   264.37167310
_cell_formula_units_Z   2
loop_
 _symmetry_equiv_pos_site_id
 _symmetry_equiv_pos_as_xyz
  1  'x, y, z'
loop_
 _atom_site_type_symbol
 _atom_site_label
 _atom_site_symmetry_multiplicity
 _atom_site_fract_x
 _atom_site_fract_y
 _atom_site_fract_z
 _atom_site_occupancy
 _atom_site_pbe_bader_charge
 _atom_site_pbe_bader_spin_density
 _atom_site_pbe_cm5_charge
 _atom_site_pbe_ddec_charge
 _atom_site_pbe_ddec_spin_density
 _atom_site_pbe_ddec_sum_bond_order
 _atom_site_pbe_magmom
Co  Co0  1  0.71718432  0.28331417  0.28317077  1  1.306286  2.602972  0.643338  0.980229  2.798755  2.28303  2.589
Co  Co1  1  0.28280611  0.71683170  0.71668996  1  1.306312  2.602997  0.643363  0.980427  2.798797  2.283319  2.589
H  H2  1  0.75757725  0.46483776  0.77855459  1  0.638049  0.000222  0.311628  0.354429  -0.000198  0.949743  0.0
H  H3  1  0.00037363  0.77866688  0.46447191  1  0.629503  0.000224  0.312302  0.354773  -0.0002  0.947542  0.0
H  H4  1  0.24242662  0.22143209  0.53516652  1  0.638036  0.000221  0.311567  0.354387  -0.000199  0.949769  0.0
H  H5  1  0.99962210  0.53552711  0.22133949  1  0.629519  0.000223  0.312281  0.354696  -0.0002  0.947588  0.0
H  H6  1  0.60763018  0.21070342  0.93582428  1  0.159348  0.00149  0.12369  0.102455  0.000643  0.992628  0.001
H  H7  1  0.24662556  0.93611458  0.21077483  1  0.131941  0.001542  0.124037  0.102922  0.000645  0.993511  0.001
H  H8  1  0.39235107  0.06417685  0.78930461  1  0.159069  0.00149  0.1237  0.102437  0.000643  0.992593  0.001
H  H9  1  0.75339896  0.78921915  0.06388127  1  0.131831  0.001542  0.124004  0.102852  0.000645  0.99371  0.001
C  C10  1  0.17117400  0.36344181  0.92180961  1  1.574124  0.005814  0.218076  0.571452  0.003113  4.159724  0.004
C  C11  1  0.54560038  0.92135018  0.36329012  1  1.574229  0.006235  0.21821  0.5726  0.003499  4.157308  0.004
C  C12  1  0.82882702  0.07818917  0.63655503  1  1.573682  0.005814  0.2181  0.571564  0.00311  4.159603  0.004
C  C13  1  0.45440272  0.63669848  0.07864930  1  1.57339  0.006239  0.218301  0.572766  0.003499  4.156782  0.004
C  C14  1  0.49159811  0.29722309  0.82758151  1  0.43116  0.006951  -0.001607  0.030735  0.003736  3.829667  0.004
C  C15  1  0.38449841  0.82776025  0.29703205  1  0.431977  0.006969  -0.001626  0.030393  0.003764  3.832116  0.004
C  C16  1  0.50839906  0.17241365  0.70278672  1  0.413737  0.006959  -0.001564  0.030834  0.003735  3.829623  0.004
C  C17  1  0.61551622  0.70296552  0.17222945  1  0.450401  0.006958  -0.00169  0.030349  0.003763  3.832029  0.004
O  O18  1  0.05815920  0.24893611  0.05702332  1  -1.165079  0.067878  -0.300353  -0.531337  0.034627  2.402833  0.056
O  O19  1  0.64138634  0.05522215  0.24825640  1  -1.161145  0.067285  -0.300403  -0.53221  0.034351  2.394163  0.055
O  O20  1  0.94185768  0.94295857  0.75107589  1  -1.164692  0.0679  -0.300433  -0.531512  0.03464  2.402477  0.056
O  O21  1  0.35858905  0.75175225  0.94476119  1  -1.160338  0.06732  -0.300454  -0.532369  0.03437  2.393756  0.055
O  O22  1  0.03136127  0.52661334  0.85144095  1  -1.163878  0.069345  -0.302189  -0.552537  0.035003  2.361468  0.056
O  O23  1  0.58982042  0.85200201  0.52721618  1  -1.156936  0.069547  -0.301905  -0.55288  0.035149  2.363639  0.056
O  O24  1  0.96863688  0.14855303  0.47339429  1  -1.163821  0.069337  -0.302142  -0.552495  0.034995  2.361759  0.056
O  O25  1  0.41017379  0.47279581  0.14799072  1  -1.156981  0.069531  -0.301892  -0.552883  0.035139  2.364021  0.056
O  O26  1  0.61473581  0.45294954  0.72099548  1  -1.118715  0.046679  -0.37156  -0.465562  0.023507  2.419804  0.04
O  O27  1  0.21236058  0.72092862  0.45260620  1  -1.111071  0.046812  -0.37165  -0.46554  0.023581  2.420327  0.04
O  O28  1  0.38522778  0.27900975  0.54707175  1  -1.118753  0.046688  -0.371534  -0.465588  0.02351  2.41968  0.04
O  O29  1  0.78763694  0.54740522  0.27907971  1  -1.111183  0.046819  -0.371596  -0.465388  0.023581  2.420305  0.04
