# generated using pymatgen
data_HgH7C9NCl2
_symmetry_space_group_name_H-M   'P 1'
_cell_length_a   7.32722899
_cell_length_b   7.53451119
_cell_length_c   9.65618396
_cell_angle_alpha   69.28590260
_cell_angle_beta   86.34366426
_cell_angle_gamma   87.87378992
_symmetry_Int_Tables_number   1
_chemical_formula_structural   HgH7C9NCl2
_chemical_formula_sum   'Hg2 H14 C18 N2 Cl4'
_cell_volume   497.55393349
_cell_formula_units_Z   2
loop_
 _symmetry_equiv_pos_site_id
 _symmetry_equiv_pos_as_xyz
  1  'x, y, z'
loop_
 _atom_site_type_symbol
 _atom_site_label
 _atom_site_symmetry_multiplicity
 _atom_site_fract_x
 _atom_site_fract_y
 _atom_site_fract_z
 _atom_site_occupancy
 _atom_site_hle17_bader_spin_density
 _atom_site_hle17_ddec_charge
 _atom_site_hle17_ddec_spin_density
 _atom_site_hle17_ddec_sum_bond_order
 _atom_site_hle17_magmom
 _atom_site_hse06_10hf_bader_spin_density
 _atom_site_hse06_10hf_ddec_charge
 _atom_site_hse06_10hf_ddec_spin_density
 _atom_site_hse06_10hf_ddec_sum_bond_order
 _atom_site_hse06_10hf_magmom
 _atom_site_hse06_bader_spin_density
 _atom_site_hse06_ddec_charge
 _atom_site_hse06_ddec_spin_density
 _atom_site_hse06_ddec_sum_bond_order
 _atom_site_hse06_magmom
 _atom_site_pbe_bader_spin_density
 _atom_site_pbe_cm5_charge
 _atom_site_pbe_ddec_charge
 _atom_site_pbe_ddec_spin_density
 _atom_site_pbe_ddec_sum_bond_order
 _atom_site_pbe_magmom
Hg  Hg0  1  0.75268878  0.54527904  0.93479408  1  0  0.733574  0  2.158743  0  0  0.589891  0  2.658081  0  0  0.637635  0  2.623819  0  0  0.495395  0.557251  0  2.681224  0
Hg  Hg1  1  0.24729586  0.45473147  0.06521850  1  0  0.733638  0  2.158682  0  0  0.589979  0  2.658038  0  0  0.637723  0  2.623778  0  0  0.495426  0.557346  0  2.681154  0
H  H2  1  0.85867234  0.95234664  0.89382749  1  0  0.081726  0  0.92793  0  0  0.091101  0  0.992362  0  0  0.093231  0  0.98938  0  0  0.112237  0.089382  0  0.994751  0
H  H3  1  0.14130158  0.04766508  0.10617169  1  0  0.081814  0  0.92788  0  0  0.091161  0  0.992324  0  0  0.093292  0  0.98934  0  0  0.112301  0.089433  0  0.99471  0
H  H4  1  0.89827952  0.27432831  0.70278634  1  0  0.105882  0  0.983093  0  0  0.115767  0  1.044938  0  0  0.118414  0  1.04499  0  0  0.092468  0.1137  0  1.045361  0
H  H5  1  0.10170676  0.72567911  0.29721360  1  0  0.106022  0  0.982962  0  0  0.11582  0  1.044891  0  0  0.118465  0  1.044946  0  0  0.092518  0.113753  0  1.045311  0
H  H6  1  0.82894298  0.32610404  0.43773915  1  0  0.100783  0  0.954416  0  0  0.111249  0  1.018117  0  0  0.113997  0  1.015838  0  0  0.099921  0.109147  0  1.019879  0
H  H7  1  0.17106973  0.67387333  0.56226110  1  0  0.100754  0  0.954214  0  0  0.111249  0  1.01792  0  0  0.114005  0  1.015624  0  0  0.099922  0.10914  0  1.019689  0
H  H8  1  0.67560663  0.55496132  0.65910000  1  0  0.09131  0  0.986554  0  0  0.100313  0  1.058146  0  0  0.102898  0  1.056758  0  0  0.089789  0.098528  0  1.059157  0
H  H9  1  0.32439780  0.44502319  0.34089852  1  0  0.091336  0  0.986635  0  0  0.100335  0  1.058209  0  0  0.102919  0  1.056822  0  0  0.089806  0.098554  0  1.059217  0
H  H10  1  0.61068220  0.59449699  0.39994665  1  0  0.088124  0  0.956883  0  0  0.100027  0  1.018379  0  0  0.102125  0  1.017664  0  0  0.098023  0.098427  0  1.019035  0
H  H11  1  0.38930692  0.40550750  0.60004987  1  0  0.08804  0  0.957012  0  0  0.099973  0  1.018464  0  0  0.102068  0  1.017752  0  0  0.098012  0.098367  0  1.019124  0
H  H12  1  0.63013309  0.91029868  0.20058930  1  0  0.099037  0  0.967342  0  0  0.104864  0  1.036137  0  0  0.107762  0  1.035038  0  0  0.08756  0.102657  0  1.037402  0
H  H13  1  0.36988888  0.08970423  0.79940537  1  0  0.099014  0  0.96736  0  0  0.104831  0  1.036167  0  0  0.10775  0  1.035014  0  0  0.087547  0.102626  0  1.037429  0
H  H14  1  0.72514980  0.19022914  0.25597042  1  0  0.089531  0  0.975339  0  0  0.095923  0  1.048505  0  0  0.098028  0  1.047654  0  0  0.088989  0.094177  0  1.049485  0
H  H15  1  0.27489824  0.80975393  0.74403617  1  0  0.089478  0  0.975341  0  0  0.0959  0  1.048446  0  0  0.098007  0  1.047597  0  0  0.088986  0.094182  0  1.049401  0
C  C16  1  0.83110400  0.97863950  0.77840609  1  0  0.159118  0  3.679237  0  0  0.121281  0  3.935447  0  0  0.133377  0  3.951355  0  0  0.058882  0.113271  0  3.92461  0
C  C17  1  0.16887420  0.02135940  0.22159452  1  0  0.158922  0  3.67904  0  0  0.121186  0  3.935169  0  0  0.133283  0  3.951071  0  0  0.058767  0.113188  0  3.924318  0
C  C18  1  0.85088869  0.16067422  0.66983591  1  0  -0.119598  0  3.735772  0  0  -0.130663  0  3.986436  0  0  -0.139644  0  4.008478  0  0  -0.088311  -0.12488  0  3.971856  0
C  C19  1  0.14910050  0.83932740  0.33015936  1  0  -0.119589  0  3.73596  0  0  -0.130564  0  3.986629  0  0  -0.139543  0  4.008668  0  0  -0.088306  -0.124784  0  3.972044  0
C  C20  1  0.81352059  0.18768048  0.52574498  1  0  -0.032124  0  3.672014  0  0  -0.056342  0  3.917028  0  0  -0.051926  0  3.934289  0  0  -0.060458  -0.059036  0  3.90532  0
C  C21  1  0.18648100  0.81232378  0.47424179  1  0  -0.032244  0  3.67177  0  0  -0.056521  0  3.916918  0  0  -0.052107  0  3.934186  0  0  -0.060508  -0.059212  0  3.905206  0
C  C22  1  0.75624690  0.03302080  0.48916863  1  0  0.017363  0  3.774971  0  0  0.037894  0  3.998154  0  0  0.033505  0  4.023344  0  0  -0.002486  0.040623  0  3.980846  0
C  C23  1  0.24377228  0.96698498  0.51082636  1  0  0.017509  0  3.774646  0  0  0.037894  0  3.997953  0  0  0.033501  0  4.023147  0  0  -0.002557  0.040623  0  3.98065  0
C  C24  1  0.74136981  0.85082638  0.60469606  1  0  0.196305  0  3.771754  0  0  0.191682  0  4.004708  0  0  0.198922  0  4.029103  0  0  0.106952  0.187196  0  3.987836  0
C  C25  1  0.25862191  0.14918665  0.39529999  1  0  0.196041  0  3.772092  0  0  0.191669  0  4.004793  0  0  0.198912  0  4.029182  0  0  0.106875  0.187178  0  3.987931  0
C  C26  1  0.68776971  0.69334735  0.57042850  1  0  -0.165336  0  3.732944  0  0  -0.181447  0  3.980053  0  0  -0.188273  0  4.00264  0  0  -0.097541  -0.176873  0  3.9645  0
C  C27  1  0.31223195  0.30664702  0.42956318  1  0  -0.165213  0  3.733428  0  0  -0.181382  0  3.980466  0  0  -0.188206  0  4.003052  0  0  -0.097486  -0.176818  0  3.964922  0
C  C28  1  0.65019343  0.71601630  0.42685304  1  0  -0.032812  0  3.751752  0  0  -0.048044  0  3.999959  0  0  -0.047381  0  4.021751  0  0  -0.083733  -0.048261  0  3.985146  0
C  C29  1  0.34979718  0.28398525  0.57313908  1  0  -0.032892  0  3.752164  0  0  -0.048143  0  4.000357  0  0  -0.047482  0  4.022154  0  0  -0.083824  -0.048352  0  3.98555  0
C  C30  1  0.66249385  0.89566406  0.31263566  1  0  -0.059231  0  3.74657  0  0  -0.075197  0  4.000405  0  0  -0.079463  0  4.023744  0  0  -0.090727  -0.072562  0  3.984792  0
C  C31  1  0.33752136  0.10434301  0.68735083  1  0  -0.059039  0  3.746503  0  0  -0.074998  0  4.000316  0  0  -0.079259  0  4.02367  0  0  -0.090529  -0.072363  0  3.984707  0
C  C32  1  0.71451557  0.05113757  0.34333765  1  0  -0.094932  0  3.72513  0  0  -0.114128  0  3.970495  0  0  -0.115752  0  3.993932  0  0  -0.086918  -0.112459  0  3.954545  0
C  C33  1  0.28550239  0.94886246  0.65665489  1  0  -0.094998  0  3.725167  0  0  -0.114158  0  3.970575  0  0  -0.115788  0  3.994023  0  0  -0.086982  -0.112518  0  3.95461  0
N  N34  1  0.77937062  0.83060611  0.74693541  1  0  -0.318623  0  3.300231  0  0  -0.232655  0  3.558858  0  0  -0.25767  0  3.582919  0  0  -0.303369  -0.215889  0  3.542219  0
N  N35  1  0.22062234  0.16939583  0.25307826  1  0  -0.318446  0  3.300125  0  0  -0.232648  0  3.558795  0  0  -0.257664  0  3.582853  0  0  -0.30328  -0.215876  0  3.542143  0
Cl  Cl36  1  0.57319387  0.26778679  0.96128521  1  0  -0.451865  0  1.042931  0  0  -0.391691  0  1.329861  0  0  -0.410776  0  1.312749  0  0  -0.251052  -0.37834  0  1.341917  0
Cl  Cl37  1  0.42680449  0.73221098  0.03873565  1  0  -0.451909  0  1.043043  0  0  -0.391723  0  1.329959  0  0  -0.410813  0  1.312855  0  0  -0.251056  -0.378362  0  1.341995  0
Cl  Cl38  1  0.90576498  0.57853986  0.15377286  1  0  -0.488244  0  1.041321  0  0  -0.42985  0  1.330208  0  0  -0.44904  0  1.311126  0  0  -0.265631  -0.416095  0  1.343201  0
Cl  Cl39  1  0.09422380  0.42146217  0.84624509  1  0  -0.488224  0  1.041333  0  0  -0.429832  0  1.330197  0  0  -0.449035  0  1.311133  0  0  -0.265618  -0.416073  0  1.343183  0
