# generated using pymatgen
data_SrH4C2(SO3)2
_symmetry_space_group_name_H-M   'P 1'
_cell_length_a   4.97435393
_cell_length_b   4.97435898
_cell_length_c   14.98271601
_cell_angle_alpha   87.18947855
_cell_angle_beta   87.18947893
_cell_angle_gamma   66.48884895
_symmetry_Int_Tables_number   1
_chemical_formula_structural   SrH4C2(SO3)2
_chemical_formula_sum   'Sr2 H8 C4 S4 O12'
_cell_volume   339.37331943
_cell_formula_units_Z   2
loop_
 _symmetry_equiv_pos_site_id
 _symmetry_equiv_pos_as_xyz
  1  'x, y, z'
loop_
 _atom_site_type_symbol
 _atom_site_label
 _atom_site_symmetry_multiplicity
 _atom_site_fract_x
 _atom_site_fract_y
 _atom_site_fract_z
 _atom_site_occupancy
 _atom_site_hle17_bader_spin_density
 _atom_site_hle17_ddec_charge
 _atom_site_hle17_ddec_spin_density
 _atom_site_hle17_ddec_sum_bond_order
 _atom_site_hle17_magmom
 _atom_site_hse06_10hf_bader_spin_density
 _atom_site_hse06_10hf_ddec_charge
 _atom_site_hse06_10hf_ddec_spin_density
 _atom_site_hse06_10hf_ddec_sum_bond_order
 _atom_site_hse06_10hf_magmom
 _atom_site_hse06_bader_spin_density
 _atom_site_hse06_ddec_charge
 _atom_site_hse06_ddec_spin_density
 _atom_site_hse06_ddec_sum_bond_order
 _atom_site_hse06_magmom
 _atom_site_pbe_bader_spin_density
 _atom_site_pbe_cm5_charge
 _atom_site_pbe_ddec_charge
 _atom_site_pbe_ddec_spin_density
 _atom_site_pbe_ddec_sum_bond_order
 _atom_site_pbe_magmom
Sr  Sr0  1  0.03063806  0.96936075  0.74999979  1  0  1.640611  0  1.068635  0  0  1.500995  0  1.437785  0  0  1.534493  0  1.395985  0  0  1.004888  1.476175  0  1.467554  0
Sr  Sr1  1  0.96936383  0.03063780  0.25000021  1  0  1.64062  0  1.068622  0  0  1.501041  0  1.437716  0  0  1.534502  0  1.395976  0  0  1.004891  1.476219  0  1.467478  0
H  H2  1  0.68363706  0.66043057  0.46514185  1  0  0.14895  0  0.94055  0  0  0.156399  0  1.004036  0  0  0.159999  0  1.002314  0  0  0.119583  0.153805  0  1.005382  0
H  H3  1  0.33956984  0.31636452  0.03485792  1  0  0.148947  0  0.940546  0  0  0.156401  0  1.004042  0  0  0.159998  0  1.002315  0  0  0.119582  0.153807  0  1.005385  0
H  H4  1  0.31636194  0.33957018  0.53485816  1  0  0.148968  0  0.940527  0  0  0.156423  0  1.004017  0  0  0.160023  0  1.002285  0  0  0.119593  0.153832  0  1.005356  0
H  H5  1  0.66043117  0.68363623  0.96514206  1  0  0.148963  0  0.940542  0  0  0.156416  0  1.004023  0  0  0.160015  0  1.002298  0  0  0.119588  0.153824  0  1.005363  0
H  H6  1  0.87954244  0.83193482  0.52049066  1  0  0.146707  0  0.928179  0  0  0.156449  0  0.989917  0  0  0.159857  0  0.988219  0  0  0.122217  0.15398  0  0.991312  0
H  H7  1  0.16806458  0.12045779  0.97950956  1  0  0.14671  0  0.928183  0  0  0.156468  0  0.989913  0  0  0.159874  0  0.988211  0  0  0.122225  0.154001  0  0.991311  0
H  H8  1  0.12045656  0.16806592  0.47950869  1  0  0.146712  0  0.928179  0  0  0.156467  0  0.989911  0  0  0.159871  0  0.988212  0  0  0.122227  0.154  0  0.991311  0
H  H9  1  0.83193644  0.87954296  0.02049108  1  0  0.146713  0  0.928171  0  0  0.15646  0  0.989902  0  0  0.159867  0  0.988203  0  0  0.122218  0.15399  0  0.991304  0
C  C10  1  0.85623805  0.62413030  0.51289776  1  0  -0.283807  0  3.609689  0  0  -0.321042  0  3.866823  0  0  -0.32628  0  3.873172  0  0  -0.146739  -0.31749  0  3.86283  0
C  C11  1  0.37586812  0.14376190  0.98710248  1  0  -0.283798  0  3.609714  0  0  -0.321076  0  3.866878  0  0  -0.326297  0  3.873205  0  0  -0.146747  -0.317527  0  3.862888  0
C  C12  1  0.14376183  0.37586824  0.48710161  1  0  -0.283816  0  3.609708  0  0  -0.321083  0  3.866848  0  0  -0.3263  0  3.87318  0  0  -0.146752  -0.317535  0  3.862858  0
C  C13  1  0.62413088  0.85623884  0.01289819  1  0  -0.283819  0  3.609695  0  0  -0.32107  0  3.866866  0  0  -0.326304  0  3.873206  0  0  -0.146754  -0.317522  0  3.862876  0
S  S14  1  0.71630347  0.54605560  0.61831978  1  0  1.374082  0  5.555609  0  0  1.280677  0  6.07323  0  0  1.327211  0  6.050049  0  0  0.531292  1.248509  0  6.088312  0
S  S15  1  0.45394704  0.28369482  0.88168042  1  0  1.374114  0  5.555535  0  0  1.280724  0  6.073147  0  0  1.327256  0  6.049958  0  0  0.531312  1.248553  0  6.088237  0
S  S16  1  0.28369063  0.45394733  0.38168027  1  0  1.374123  0  5.555731  0  0  1.280734  0  6.073354  0  0  1.327267  0  6.050163  0  0  0.531322  1.248554  0  6.088456  0
S  S17  1  0.54605109  0.71630812  0.11831957  1  0  1.374118  0  5.555647  0  0  1.280698  0  6.07329  0  0  1.327234  0  6.050095  0  0  0.531312  1.248524  0  6.088384  0
O  O18  1  0.91842002  0.54599016  0.68824494  1  0  -0.772886  0  1.959552  0  0  -0.712052  0  2.227578  0  0  -0.733567  0  2.212134  0  0  -0.383517  -0.696732  0  2.237769  0
O  O19  1  0.45400870  0.08158107  0.81175461  1  0  -0.772887  0  1.959509  0  0  -0.712072  0  2.227565  0  0  -0.73359  0  2.212123  0  0  -0.383526  -0.696755  0  2.237758  0
O  O20  1  0.08158300  0.45401058  0.31175500  1  0  -0.772918  0  1.959744  0  0  -0.712107  0  2.227781  0  0  -0.733615  0  2.212337  0  0  -0.383559  -0.696785  0  2.237977  0
O  O21  1  0.54599117  0.91841748  0.18824543  1  0  -0.772921  0  1.959618  0  0  -0.712124  0  2.227699  0  0  -0.733632  0  2.212253  0  0  -0.383563  -0.696806  0  2.237891  0
O  O22  1  0.71725133  0.24935992  0.61515422  1  0  -0.722452  0  1.961317  0  0  -0.663169  0  2.219055  0  0  -0.68482  0  2.205054  0  0  -0.367565  -0.647904  0  2.228328  0
O  O23  1  0.75064013  0.28274938  0.88484532  1  0  -0.722466  0  1.961331  0  0  -0.663186  0  2.219069  0  0  -0.684832  0  2.205064  0  0  -0.367568  -0.647919  0  2.228341  0
O  O24  1  0.28274969  0.75064082  0.38484576  1  0  -0.722465  0  1.961334  0  0  -0.663195  0  2.219079  0  0  -0.68484  0  2.205079  0  0  -0.367575  -0.647925  0  2.228358  0
O  O25  1  0.24936088  0.71725136  0.11515466  1  0  -0.722491  0  1.961409  0  0  -0.663183  0  2.219142  0  0  -0.684827  0  2.205139  0  0  -0.367562  -0.647913  0  2.22841  0
O  O26  1  0.42126583  0.77723230  0.62910930  1  0  -0.710905  0  1.962793  0  0  -0.647752  0  2.224182  0  0  -0.669647  0  2.209792  0  0  -0.377708  -0.632245  0  2.233672  0
O  O27  1  0.22276827  0.57873383  0.87089091  1  0  -0.710913  0  1.962757  0  0  -0.647758  0  2.224134  0  0  -0.669654  0  2.209746  0  0  -0.377717  -0.632251  0  2.233627  0
O  O28  1  0.57873719  0.22276845  0.37089064  1  0  -0.710911  0  1.962672  0  0  -0.64776  0  2.224047  0  0  -0.669649  0  2.209662  0  0  -0.377702  -0.632248  0  2.23354  0
O  O29  1  0.77723361  0.42126472  0.12910909  1  0  -0.710883  0  1.962657  0  0  -0.647722  0  2.224037  0  0  -0.669612  0  2.209648  0  0  -0.377697  -0.632215  0  2.233531  0
