# generated using pymatgen
data_VH8C10N2F3
_symmetry_space_group_name_H-M   'P 1'
_cell_length_a   3.89016631
_cell_length_b   8.04094066
_cell_length_c   8.04093159
_cell_angle_alpha   83.88758296
_cell_angle_beta   76.04802230
_cell_angle_gamma   76.04815231
_symmetry_Int_Tables_number   1
_chemical_formula_structural   VH8C10N2F3
_chemical_formula_sum   'V1 H8 C10 N2 F3'
_cell_volume   236.59096634
_cell_formula_units_Z   1
loop_
 _symmetry_equiv_pos_site_id
 _symmetry_equiv_pos_as_xyz
  1  'x, y, z'
loop_
 _atom_site_type_symbol
 _atom_site_label
 _atom_site_symmetry_multiplicity
 _atom_site_fract_x
 _atom_site_fract_y
 _atom_site_fract_z
 _atom_site_occupancy
 _atom_site_pbe_cm5_charge
 _atom_site_pbe_ddec_charge
 _atom_site_pbe_ddec_spin_density
 _atom_site_pbe_ddec_sum_bond_order
 _atom_site_pbe_magmom
V  V0  1  0.99999913  0.50028664  0.49971396  1  1.193316  1.573389  -1.776269  2.744608  -1.707
H  H1  1  0.21217652  0.27124043  0.89628226  1  0.105026  0.133596  0.000526  1.0377  0.0
H  H2  1  0.61925884  0.89615829  0.27171473  1  0.104617  0.133538  0.000536  1.037521  0.0
H  H3  1  0.38074124  0.72828405  0.10384145  1  0.104618  0.133544  0.000536  1.037517  0.0
H  H4  1  0.78782323  0.10371784  0.72876027  1  0.105035  0.133611  0.000526  1.037691  0.0
H  H5  1  0.39269175  0.12649358  0.48359016  1  0.115431  0.085512  -0.000184  1.027213  0.0
H  H6  1  0.99828274  0.48328897  0.12638768  1  0.115256  0.085219  -0.000193  1.027209  0.0
H  H7  1  0.00171866  0.87361359  0.51671226  1  0.115257  0.085251  -0.000193  1.027184  0.0
H  H8  1  0.60730743  0.51641006  0.87350656  1  0.11543  0.085517  -0.000184  1.02722  0.0
C  C9  1  0.56492024  0.93484443  0.93504599  1  0.013487  0.108142  -0.027411  3.961437  -0.018
C  C10  1  0.43507157  0.06495274  0.06515703  1  0.013442  0.108135  -0.027411  3.961416  -0.018
C  C11  1  0.51953603  0.76609123  0.97559910  1  -0.07933  -0.167836  0.003121  3.904595  0.003
C  C12  1  0.73855821  0.97555972  0.76637531  1  -0.08087  -0.169327  0.003105  3.9064  0.003
C  C13  1  0.26143562  0.23362620  0.02444066  1  -0.080806  -0.169253  0.003106  3.906389  0.003
C  C14  1  0.48046665  0.02439935  0.23390748  1  -0.079335  -0.16788  0.00312  3.90461  0.003
C  C15  1  0.64174473  0.64795231  0.84860998  1  0.041734  0.099931  -0.021532  3.955948  -0.016
C  C16  1  0.86109423  0.84864613  0.64821947  1  0.041564  0.099181  -0.021607  3.95654  -0.016
C  C17  1  0.13890151  0.35178120  0.15135399  1  0.041538  0.099169  -0.021605  3.95651  -0.016
C  C18  1  0.35825511  0.15138978  0.35204663  1  0.04176  0.099988  -0.021534  3.955983  -0.016
N  N19  1  0.81287319  0.68687076  0.68695066  1  -0.396127  -0.344068  -0.009345  3.620624  0.017
N  N20  1  0.18712824  0.31304843  0.31313034  1  -0.396135  -0.34409  -0.009347  3.620655  0.017
F  F21  1  0.99999802  0.32597728  0.67402284  1  -0.379667  -0.553692  -0.018025  0.995836  -0.009
F  F22  1  0.99999967  0.67470374  0.32529647  1  -0.379656  -0.553953  -0.018071  0.99558  -0.009
F  F23  1  0.49999976  0.50066347  0.49933725  1  -0.395585  -0.593626  -0.041665  1.251476  -0.018
