# generated using pymatgen
data_NdPH3CO6
_symmetry_space_group_name_H-M   'P 1'
_cell_length_a   6.70033900
_cell_length_b   7.09515758
_cell_length_c   8.31533520
_cell_angle_alpha   114.39429133
_cell_angle_beta   97.61564783
_cell_angle_gamma   90.25678773
_symmetry_Int_Tables_number   1
_chemical_formula_structural   NdPH3CO6
_chemical_formula_sum   'Nd2 P2 H6 C2 O12'
_cell_volume   356.07502322
_cell_formula_units_Z   2
loop_
 _symmetry_equiv_pos_site_id
 _symmetry_equiv_pos_as_xyz
  1  'x, y, z'
loop_
 _atom_site_type_symbol
 _atom_site_label
 _atom_site_symmetry_multiplicity
 _atom_site_fract_x
 _atom_site_fract_y
 _atom_site_fract_z
 _atom_site_occupancy
 _atom_site_hle17_bader_spin_density
 _atom_site_hle17_ddec_charge
 _atom_site_hle17_ddec_spin_density
 _atom_site_hle17_ddec_sum_bond_order
 _atom_site_hle17_magmom
 _atom_site_hse06_10hf_bader_spin_density
 _atom_site_hse06_10hf_ddec_charge
 _atom_site_hse06_10hf_ddec_spin_density
 _atom_site_hse06_10hf_ddec_sum_bond_order
 _atom_site_hse06_10hf_magmom
 _atom_site_hse06_bader_spin_density
 _atom_site_hse06_ddec_charge
 _atom_site_hse06_ddec_spin_density
 _atom_site_hse06_ddec_sum_bond_order
 _atom_site_hse06_magmom
 _atom_site_pbe_bader_spin_density
 _atom_site_pbe_cm5_charge
 _atom_site_pbe_ddec_charge
 _atom_site_pbe_ddec_spin_density
 _atom_site_pbe_ddec_sum_bond_order
 _atom_site_pbe_magmom
Nd  Nd0  1  0.12563688  0.21827323  0.93445705  1  0  2.352552  0  1.658954  0  0  2.20264  0  2.105188  0  0  2.284887  0  1.980042  0  0  1.554672  2.173377  0  2.137956  0
Nd  Nd1  1  0.87437512  0.78172044  0.06553402  1  0  2.352677  0  1.658985  0  0  2.20268  0  2.105392  0  0  2.285029  0  1.980053  0  0  1.554831  2.173478  0  2.138044  0
P  P2  1  0.67423726  0.25305189  0.01172054  1  0  1.516759  0  4.915502  0  0  1.331356  0  5.438876  0  0  1.382457  0  5.406572  0  0  0.291915  1.295063  0  5.468422  0
P  P3  1  0.32576930  0.74691882  0.98827668  1  0  1.516935  0  4.915248  0  0  1.331566  0  5.438531  0  0  1.382657  0  5.406247  0  0  0.292099  1.295217  0  5.468104  0
H  H4  1  0.65210308  0.33487808  0.19398601  1  0  -0.135537  0  0.856404  0  0  -0.103548  0  0.934457  0  0  -0.106558  0  0.92914  0  0  0.11196  -0.101661  0  0.938598  0
H  H5  1  0.34788618  0.66512110  0.80598437  1  0  -0.135585  0  0.856332  0  0  -0.103574  0  0.934333  0  0  -0.106583  0  0.929028  0  0  0.111982  -0.101617  0  0.938399  0
H  H6  1  0.09321847  0.29230907  0.30966774  1  0  0.436033  0  0.861324  0  0  0.407417  0  0.920421  0  0  0.418111  0  0.904838  0  0  0.30473  0.39983  0  0.931578  0
H  H7  1  0.90677531  0.70770777  0.69033311  1  0  0.436093  0  0.86119  0  0  0.407385  0  0.920406  0  0  0.418079  0  0.904828  0  0  0.30467  0.399795  0  0.931567  0
H  H8  1  0.10237185  0.51570911  0.31085187  1  0  0.437815  0  0.858828  0  0  0.409652  0  0.916815  0  0  0.420618  0  0.900834  0  0  0.30446  0.401881  0  0.928233  0
H  H9  1  0.89763266  0.48430360  0.68916662  1  0  0.437938  0  0.858687  0  0  0.409701  0  0.916809  0  0  0.420664  0  0.900828  0  0  0.304446  0.401922  0  0.928244  0
C  C10  1  0.99306108  0.10818593  0.49908785  1  0  0.584841  0  3.905802  0  0  0.541276  0  4.196137  0  0  0.570763  0  4.190816  0  0  0.243095  0.521108  0  4.201762  0
C  C11  1  0.00695307  0.89182892  0.50088775  1  0  0.584669  0  3.905072  0  0  0.541015  0  4.195548  0  0  0.570508  0  4.190221  0  0  0.243096  0.520845  0  4.201176  0
O  O12  1  0.80517470  0.06355562  0.97368049  1  0  -1.026518  0  2.05283  0  0  -0.940992  0  2.335391  0  0  -0.976573  0  2.313849  0  0  -0.510976  -0.922783  0  2.349361  0
O  O13  1  0.19484377  0.93643121  0.02634495  1  0  -1.026431  0  2.052562  0  0  -0.940926  0  2.335133  0  0  -0.976501  0  2.313594  0  0  -0.510947  -0.922728  0  2.349144  0
O  O14  1  0.46498951  0.20201653  0.90272866  1  0  -0.921504  0  1.934502  0  0  -0.841978  0  2.206714  0  0  -0.873339  0  2.18144  0  0  -0.476949  -0.824253  0  2.221681  0
O  O15  1  0.53498808  0.79800051  0.09728640  1  0  -0.921589  0  1.934493  0  0  -0.842058  0  2.206673  0  0  -0.873429  0  2.181386  0  0  -0.477012  -0.824348  0  2.221663  0
O  O16  1  0.80540728  0.41401805  0.98299875  1  0  -1.0276  0  2.057445  0  0  -0.942618  0  2.341758  0  0  -0.97813  0  2.319854  0  0  -0.50975  -0.924466  0  2.355954  0
O  O17  1  0.19456068  0.58598366  0.01702105  1  0  -1.027749  0  2.057512  0  0  -0.94286  0  2.341974  0  0  -0.978379  0  2.320092  0  0  -0.509962  -0.924697  0  2.35619  0
O  O18  1  0.02371860  0.26253345  0.64928934  1  0  -0.658476  0  2.076997  0  0  -0.604554  0  2.308661  0  0  -0.632778  0  2.296562  0  0  -0.335629  -0.588249  0  2.315797  0
O  O19  1  0.97629045  0.73746905  0.35068520  1  0  -0.658359  0  2.076743  0  0  -0.604447  0  2.308439  0  0  -0.632684  0  2.296333  0  0  -0.33575  -0.588154  0  2.315568  0
O  O20  1  0.04716992  0.88673832  0.65197512  1  0  -0.659116  0  2.078001  0  0  -0.606322  0  2.311682  0  0  -0.634356  0  2.299844  0  0  -0.33441  -0.590094  0  2.318698  0
O  O21  1  0.95283830  0.11326630  0.34802533  1  0  -0.658974  0  2.078333  0  0  -0.606238  0  2.311992  0  0  -0.63428  0  2.300154  0  0  -0.334349  -0.590018  0  2.318998  0
O  O22  1  0.16130719  0.37857339  0.26219599  1  0  -0.899334  0  1.793053  0  0  -0.852245  0  1.96383  0  0  -0.875043  0  1.927302  0  0  -0.643115  -0.839682  0  1.986788  0
O  O23  1  0.83869749  0.62141308  0.73781842  1  0  -0.89954  0  1.792905  0  0  -0.852327  0  1.963881  0  0  -0.87514  0  1.927346  0  0  -0.643107  -0.839765  0  1.986841  0
