# generated using pymatgen
data_CsH2CN5
_symmetry_space_group_name_H-M   'P 1'
_cell_length_a   6.81760731
_cell_length_b   8.14318875
_cell_length_c   9.14965147
_cell_angle_alpha   89.99997603
_cell_angle_beta   90.00005393
_cell_angle_gamma   90.00014897
_symmetry_Int_Tables_number   1
_chemical_formula_structural   CsH2CN5
_chemical_formula_sum   'Cs4 H8 C4 N20'
_cell_volume   507.96177864
_cell_formula_units_Z   4
loop_
 _symmetry_equiv_pos_site_id
 _symmetry_equiv_pos_as_xyz
  1  'x, y, z'
loop_
 _atom_site_type_symbol
 _atom_site_label
 _atom_site_symmetry_multiplicity
 _atom_site_fract_x
 _atom_site_fract_y
 _atom_site_fract_z
 _atom_site_occupancy
 _atom_site_pbe_bader_spin_density
 _atom_site_pbe_cm5_charge
 _atom_site_pbe_ddec_charge
 _atom_site_pbe_ddec_spin_density
 _atom_site_pbe_ddec_sum_bond_order
 _atom_site_pbe_magmom
Cs  Cs0  1  0.75000050  0.51280220  0.80646258  1  0  1.01814  0.770233  0  0.900982  0
Cs  Cs1  1  0.24999998  0.98719579  0.30646185  1  0  1.018158  0.77025  0  0.900997  0
Cs  Cs2  1  0.25000061  0.48719635  0.19353852  1  0  1.018151  0.770257  0  0.900959  0
Cs  Cs3  1  0.74999966  0.01280277  0.69353815  1  0  1.018149  0.770244  0  0.900983  0
H  H4  1  0.37687853  0.69460655  0.57650174  1  0  0.299306  0.282897  0  1.034064  0
H  H5  1  0.62312166  0.80539401  0.07650353  1  0  0.29931  0.282901  0  1.034036  0
H  H6  1  0.87687289  0.30539106  0.42349616  1  0  0.29936  0.282953  0  1.034131  0
H  H7  1  0.12312473  0.19460673  0.92349639  1  0  0.29933  0.282918  0  1.034044  0
H  H8  1  0.62311524  0.30539692  0.42349826  1  0  0.299243  0.282845  0  1.033974  0
H  H9  1  0.37688091  0.19460455  0.92349757  1  0  0.299257  0.282827  0  1.034021  0
H  H10  1  0.12312088  0.69460504  0.57650275  1  0  0.299306  0.282907  0  1.034028  0
H  H11  1  0.87687931  0.80539428  0.07650362  1  0  0.299305  0.282904  0  1.034012  0
C  C12  1  0.24999994  0.77302405  0.76373833  1  0  0.298157  0.497426  0  4.138178  0
C  C13  1  0.75000195  0.72697642  0.26374023  1  0  0.29814  0.497417  0  4.138196  0
C  C14  1  0.74999530  0.22697573  0.23626277  1  0  0.298152  0.49748  0  4.138121  0
C  C15  1  0.25000209  0.27302337  0.73626196  1  0  0.29815  0.497428  0  4.138125  0
N  N16  1  0.41387716  0.79143223  0.84503656  1  0  -0.407213  -0.427827  0  3.279996  0
N  N17  1  0.58612337  0.70856820  0.34503726  1  0  -0.407213  -0.427818  0  3.279936  0
N  N18  1  0.91387969  0.20856791  0.15496465  1  0  -0.407213  -0.427876  0  3.2798  0
N  N19  1  0.08612199  0.29143123  0.65496263  1  0  -0.407204  -0.427829  0  3.279902  0
N  N20  1  0.58612541  0.20856878  0.15496235  1  0  -0.407167  -0.427803  0  3.280238  0
N  N21  1  0.41387627  0.29143282  0.65496274  1  0  -0.40719  -0.427788  0  3.280075  0
N  N22  1  0.08612435  0.79143187  0.84503644  1  0  -0.407194  -0.427813  0  3.280055  0
N  N23  1  0.91387472  0.70856733  0.34503737  1  0  -0.407173  -0.427804  0  3.280151  0
N  N24  1  0.34642255  0.82222596  0.98177179  1  0  -0.227612  -0.144333  0  3.463535  0
N  N25  1  0.65357816  0.67777440  0.48177255  1  0  -0.227604  -0.144334  0  3.463489  0
N  N26  1  0.84642187  0.17777403  0.01822828  1  0  -0.227628  -0.144334  0  3.463444  0
N  N27  1  0.15357817  0.32222640  0.51822738  1  0  -0.227611  -0.144325  0  3.463492  0
N  N28  1  0.65357709  0.17777505  0.01822931  1  0  -0.227582  -0.144273  0  3.463572  0
N  N29  1  0.34642295  0.32222415  0.51822745  1  0  -0.227602  -0.144323  0  3.463596  0
N  N30  1  0.15357776  0.82222575  0.98177172  1  0  -0.227587  -0.1443  0  3.463534  0
N  N31  1  0.84642294  0.67777462  0.48177262  1  0  -0.227594  -0.14429  0  3.463533  0
N  N32  1  0.25000127  0.74592905  0.61549006  1  0  -0.645324  -0.689222  0  3.307995  0
N  N33  1  0.74999896  0.75407149  0.11549195  1  0  -0.645315  -0.689213  0  3.307912  0
N  N34  1  0.75001303  0.25406951  0.38450885  1  0  -0.64531  -0.689237  0  3.307977  0
N  N35  1  0.24999334  0.24592952  0.88450805  1  0  -0.645279  -0.689146  0  3.307978  0
