# generated using pymatgen
data_LuH9C5(NO4)2
_symmetry_space_group_name_H-M   'P 1'
_cell_length_a   6.48803634
_cell_length_b   6.60155178
_cell_length_c   6.60132135
_cell_angle_alpha   64.65306445
_cell_angle_beta   73.23170569
_cell_angle_gamma   73.22845984
_symmetry_Int_Tables_number   1
_chemical_formula_structural   LuH9C5(NO4)2
_chemical_formula_sum   'Lu1 H9 C5 N2 O8'
_cell_volume   240.16612080
_cell_formula_units_Z   1
loop_
 _symmetry_equiv_pos_site_id
 _symmetry_equiv_pos_as_xyz
  1  'x, y, z'
loop_
 _atom_site_type_symbol
 _atom_site_label
 _atom_site_symmetry_multiplicity
 _atom_site_fract_x
 _atom_site_fract_y
 _atom_site_fract_z
 _atom_site_occupancy
 _atom_site_hle17_bader_spin_density
 _atom_site_hle17_ddec_charge
 _atom_site_hle17_ddec_spin_density
 _atom_site_hle17_ddec_sum_bond_order
 _atom_site_hle17_magmom
 _atom_site_hse06_10hf_bader_spin_density
 _atom_site_hse06_10hf_ddec_charge
 _atom_site_hse06_10hf_ddec_spin_density
 _atom_site_hse06_10hf_ddec_sum_bond_order
 _atom_site_hse06_10hf_magmom
 _atom_site_hse06_bader_spin_density
 _atom_site_hse06_ddec_charge
 _atom_site_hse06_ddec_spin_density
 _atom_site_hse06_ddec_sum_bond_order
 _atom_site_hse06_magmom
 _atom_site_pbe_bader_spin_density
 _atom_site_pbe_cm5_charge
 _atom_site_pbe_ddec_charge
 _atom_site_pbe_ddec_spin_density
 _atom_site_pbe_ddec_sum_bond_order
 _atom_site_pbe_magmom
Lu  Lu0  1  0.00003224  0.18506597  0.81496068  1  0  1.80601  0  2.317298  0  0  1.637916  0  2.784812  0  0  1.702718  0  2.72902  0  0  1.297547  1.592752  0  2.82255  0
H  H1  1  0.59761346  0.54000628  0.01852057  1  0  0.352573  0  0.888613  0  0  0.328014  0  0.957655  0  0  0.337856  0  0.948917  0  0  0.310916  0.320957  0  0.963944  0
H  H2  1  0.40238517  0.98150831  0.45996544  1  0  0.352495  0  0.888621  0  0  0.327847  0  0.957819  0  0  0.337717  0  0.949051  0  0  0.310723  0.32081  0  0.964075  0
H  H3  1  0.46772892  0.44199019  0.31294746  1  0  0.339574  0  0.897619  0  0  0.315982  0  0.969052  0  0  0.32451  0  0.962014  0  0  0.309221  0.309918  0  0.974038  0
H  H4  1  0.53225870  0.68696457  0.55808352  1  0  0.339612  0  0.89728  0  0  0.316038  0  0.968703  0  0  0.324555  0  0.961702  0  0  0.309125  0.309941  0  0.973753  0
H  H5  1  0.17322725  0.72127296  0.26717972  1  0  0.01755  0  0.929044  0  0  0.02593  0  1.004676  0  0  0.027113  0  0.999525  0  0  0.126597  0.024818  0  1.008501  0
H  H6  1  0.82679979  0.73279603  0.27870285  1  0  0.01755  0  0.928595  0  0  0.025804  0  1.004347  0  0  0.027017  0  0.999171  0  0  0.126523  0.024622  0  1.008241  0
H  H7  1  0.13140500  0.71268249  0.65693035  1  0  0.005946  0  0.943052  0  0  0.012994  0  1.021398  0  0  0.01417  0  1.015515  0  0  0.113689  0.011862  0  1.025789  0
H  H8  1  0.86856179  0.34304349  0.28737046  1  0  0.005934  0  0.943167  0  0  0.013009  0  1.021526  0  0  0.014205  0  1.015636  0  0  0.113746  0.011917  0  1.025875  0
H  H9  1  0.49999915  0.09735828  0.90272872  1  0  0.021758  0  0.971078  0  0  0.027277  0  1.045406  0  0  0.028247  0  1.039751  0  0  0.120177  0.026394  0  1.049494  0
C  C10  1  0.29298754  0.71771444  0.11095486  1  0  0.568989  0  3.804458  0  0  0.492053  0  4.10547  0  0  0.522649  0  4.102727  0  0  0.192898  0.471404  0  4.106933  0
C  C11  1  0.70703652  0.88912459  0.28220863  1  0  0.568993  0  3.802801  0  0  0.492355  0  4.10357  0  0  0.523007  0  4.100793  0  0  0.19308  0.471782  0  4.104966  0
C  C12  1  0.96350126  0.71334238  0.76092146  1  0  0.615741  0  3.860953  0  0  0.537678  0  4.175117  0  0  0.572631  0  4.165655  0  0  0.160544  0.51417  0  4.180773  0
C  C13  1  0.03647017  0.23904341  0.28667358  1  0  0.615906  0  3.860292  0  0  0.537694  0  4.17465  0  0  0.572625  0  4.165196  0  0  0.160723  0.514145  0  4.180308  0
C  C14  1  0.50000926  0.25266604  0.74734263  1  0  0.612579  0  3.819975  0  0  0.53316  0  4.131521  0  0  0.569893  0  4.118656  0  0  0.155513  0.508163  0  4.139854  0
N  N15  1  0.46620730  0.55269074  0.14762671  1  0  -0.604883  0  3.138881  0  0  -0.567478  0  3.397648  0  0  -0.58902  0  3.389818  0  0  -0.54933  -0.55269  0  3.402909  0
N  N16  1  0.53381147  0.85232537  0.44732143  1  0  -0.604918  0  3.137413  0  0  -0.567593  0  3.396084  0  0  -0.58917  0  3.388274  0  0  -0.549125  -0.552807  0  3.401306  0
O  O17  1  0.26005245  0.86239222  0.91735087  1  0  -0.602101  0  2.125865  0  0  -0.529591  0  2.373821  0  0  -0.557637  0  2.367653  0  0  -0.360953  -0.510164  0  2.377421  0
O  O18  1  0.73989676  0.08277077  0.13753883  1  0  -0.602166  0  2.125714  0  0  -0.529577  0  2.373439  0  0  -0.557679  0  2.367312  0  0  -0.361018  -0.510188  0  2.377031  0
O  O19  1  0.66942634  0.34359212  0.66864951  1  0  -0.639903  0  2.081418  0  0  -0.573355  0  2.335388  0  0  -0.602082  0  2.32522  0  0  -0.35909  -0.553356  0  2.341838  0
O  O20  1  0.33059192  0.33136065  0.65635199  1  0  -0.639992  0  2.080847  0  0  -0.573561  0  2.335059  0  0  -0.602315  0  2.324821  0  0  -0.359203  -0.553559  0  2.341421  0
O  O21  1  0.87677722  0.54404337  0.80600836  1  0  -0.65245  0  2.143603  0  0  -0.5796  0  2.397569  0  0  -0.609357  0  2.388602  0  0  -0.383705  -0.559149  0  2.403025  0
O  O22  1  0.12323386  0.19396313  0.45598135  1  0  -0.652628  0  2.143044  0  0  -0.579712  0  2.39712  0  0  -0.609431  0  2.388092  0  0  -0.383864  -0.559234  0  2.402546  0
O  O23  1  0.87105580  0.87583092  0.82668371  1  0  -0.621182  0  2.141494  0  0  -0.561768  0  2.399107  0  0  -0.591241  0  2.39379  0  0  -0.347344  -0.541382  0  2.401879  0
O  O24  1  0.12891983  0.17325193  0.12420538  1  0  -0.620988  0  2.141597  0  0  -0.561516  0  2.399255  0  0  -0.590983  0  2.393941  0  0  -0.347392  -0.541125  0  2.402048  0
