# generated using pymatgen
data_CuH10C12N2(ClO2)2
_symmetry_space_group_name_H-M   'P 1'
_cell_length_a   3.75696043
_cell_length_b   7.25628987
_cell_length_c   12.58980238
_cell_angle_alpha   76.37720140
_cell_angle_beta   89.39940400
_cell_angle_gamma   83.63155347
_symmetry_Int_Tables_number   1
_chemical_formula_structural   CuH10C12N2(ClO2)2
_chemical_formula_sum   'Cu1 H10 C12 N2 Cl2 O4'
_cell_volume   331.46060645
_cell_formula_units_Z   1
loop_
 _symmetry_equiv_pos_site_id
 _symmetry_equiv_pos_as_xyz
  1  'x, y, z'
loop_
 _atom_site_type_symbol
 _atom_site_label
 _atom_site_symmetry_multiplicity
 _atom_site_fract_x
 _atom_site_fract_y
 _atom_site_fract_z
 _atom_site_occupancy
 _atom_site_pbe_bader_charge
 _atom_site_pbe_bader_spin_density
 _atom_site_pbe_cm5_charge
 _atom_site_pbe_ddec_charge
 _atom_site_pbe_ddec_spin_density
 _atom_site_pbe_ddec_sum_bond_order
 _atom_site_pbe_magmom
Cu  Cu0  1  0.99999611  0.99999819  0.00000213  1  0.932214  0.509923  0.589671  0.642018  0.677536  2.380708  0.511
H  H1  1  0.84990873  0.64477613  0.94566740  1  0.143773  0.002258  0.105846  0.093891  0.001201  1.037628  0.001
H  H2  1  0.15010270  0.35520093  0.05432827  1  0.144162  0.002258  0.10587  0.093935  0.001201  1.037522  0.001
H  H3  1  0.97513247  0.48464896  0.79325500  1  0.15852  0.001901  0.098919  0.126751  0.00139  1.040583  0.001
H  H4  1  0.02490873  0.51535094  0.20673586  1  0.158695  0.001901  0.0989  0.126643  0.001391  1.040529  0.001
H  H5  1  0.35062796  0.00725845  0.60776077  1  0.148681  0.001043  0.110975  0.126892  0.000556  1.020274  0.001
H  H6  1  0.64935759  0.99275289  0.39224061  1  0.148613  0.001043  0.110979  0.126879  0.000556  1.020293  0.001
H  H7  1  0.20192282  0.14766537  0.76949949  1  0.141373  0.002254  0.106998  0.094696  0.001139  1.041349  0.001
H  H8  1  0.79803823  0.85233597  0.23050413  1  0.14133  0.002253  0.107045  0.094739  0.001138  1.041396  0.001
H  H9  1  0.35405011  0.39331424  0.55822690  1  0.652333  0.0  0.305551  0.354883  -1.1e-05  0.984432  0.0
H  H10  1  0.64595760  0.60670564  0.44176529  1  0.652262  0.0  0.305552  0.35492  -1.1e-05  0.984214  0.0
C  C11  1  0.96246910  0.71908763  0.86963915  1  0.416972  -0.000319  0.04738  0.101808  -0.000179  3.890119  0.0
C  C12  1  0.03754494  0.28090232  0.13036745  1  0.416816  -0.000317  0.04739  0.101709  -0.000179  3.890271  0.0
C  C13  1  0.03183291  0.63138396  0.78348987  1  0.057241  0.007006  -0.075614  -0.119948  0.005341  3.907195  0.005
C  C14  1  0.96818766  0.36860026  0.21650956  1  0.056689  0.007007  -0.075651  -0.11986  0.005341  3.907319  0.005
C  C15  1  0.18315377  0.73277201  0.68882701  1  -0.016293  -0.001739  -0.00341  -0.016336  -0.001717  3.982491  -0.001
C  C16  1  0.81684484  0.26722791  0.31117352  1  -0.016473  -0.00174  -0.003447  -0.016434  -0.001718  3.982389  -0.001
C  C17  1  0.23789458  0.92317507  0.68102565  1  -0.00478  0.005827  -0.073575  -0.123711  0.004027  3.903926  0.004
C  C18  1  0.76208425  0.07681770  0.31897591  1  -0.004455  0.005826  -0.073464  -0.12355  0.004026  3.903773  0.004
C  C19  1  0.15661572  0.00179587  0.77019327  1  0.444339  0.00102  0.044437  0.09057  0.000938  3.895479  0.001
C  C20  1  0.84336577  0.99819692  0.22981225  1  0.444621  0.001018  0.044289  0.09045  0.000938  3.895512  0.001
C  C21  1  0.30680267  0.63671682  0.60090838  1  1.529522  0.000262  0.245932  0.589789  0.000169  4.087898  0.0
C  C22  1  0.69320303  0.36328735  0.39908439  1  1.529176  0.000262  0.245933  0.589748  0.000169  4.087693  0.0
N  N23  1  0.03215339  0.89895076  0.86394221  1  -1.205786  0.088655  -0.338845  -0.194219  0.060516  3.613192  0.077
N  N24  1  0.96784879  0.10104489  0.13606048  1  -1.206039  0.088659  -0.338822  -0.194117  0.060517  3.613005  0.077
Cl  Cl25  1  0.41131258  0.75303296  0.08446488  1  -0.596372  0.136807  -0.279166  -0.495886  0.087979  1.344966  0.107
Cl  Cl26  1  0.58867037  0.24696553  0.91553589  1  -0.596403  0.136797  -0.279184  -0.495908  0.087972  1.344928  0.107
O  O27  1  0.23382708  0.45894107  0.61640421  1  -1.167609  5.3e-05  -0.312533  -0.455028  -6.1e-05  2.332084  0.0
O  O28  1  0.76619193  0.54106310  0.38358613  1  -1.167581  5.2e-05  -0.312522  -0.455037  -6.1e-05  2.331718  0.0
O  O29  1  0.47606873  0.71938866  0.52108994  1  -1.167989  1.4e-05  -0.277698  -0.49514  -5e-05  2.219895  0.0
O  O30  1  0.52393903  0.28061840  0.47890799  1  -1.167552  1.4e-05  -0.277736  -0.49515  -5e-05  2.219636  0.0
