# generated using pymatgen
data_CuH14C12N4O5
_symmetry_space_group_name_H-M   'P 1'
_cell_length_a   6.00465405
_cell_length_b   6.93636967
_cell_length_c   8.88871554
_cell_angle_alpha   105.28828020
_cell_angle_beta   109.76859537
_cell_angle_gamma   89.95795697
_symmetry_Int_Tables_number   1
_chemical_formula_structural   CuH14C12N4O5
_chemical_formula_sum   'Cu1 H14 C12 N4 O5'
_cell_volume   334.47257088
_cell_formula_units_Z   1
loop_
 _symmetry_equiv_pos_site_id
 _symmetry_equiv_pos_as_xyz
  1  'x, y, z'
loop_
 _atom_site_type_symbol
 _atom_site_label
 _atom_site_symmetry_multiplicity
 _atom_site_fract_x
 _atom_site_fract_y
 _atom_site_fract_z
 _atom_site_occupancy
 _atom_site_pbe_cm5_charge
 _atom_site_pbe_ddec_charge
 _atom_site_pbe_ddec_spin_density
 _atom_site_pbe_ddec_sum_bond_order
 _atom_site_pbe_magmom
Cu  Cu0  1  0.01450967  0.00012454  0.99997408  1  0.734866  0.782703  -0.729049  2.182174  -0.572
H  H1  1  0.13366539  0.73416295  0.72191288  1  0.116569  0.093084  -0.001046  1.012172  -0.002
H  H2  1  0.41124058  0.26580662  0.27783940  1  0.116431  0.092878  -0.001045  1.011595  -0.002
H  H3  1  0.92766431  0.57493412  0.42084181  1  0.103214  0.123683  -0.000451  1.016082  0.0
H  H4  1  0.50695982  0.42460044  0.57930007  1  0.104014  0.125686  -0.000451  1.015818  0.0
H  H5  1  0.31444221  0.88243998  0.46629461  1  0.102892  0.121061  -0.000502  1.037485  -0.001
H  H6  1  0.84893257  0.11726870  0.53392226  1  0.103117  0.121557  -0.000503  1.037347  -0.001
H  H7  1  0.54559952  0.02772522  0.76410775  1  0.112161  0.079175  -0.00082  1.038552  -0.001
H  H8  1  0.78170229  0.97216227  0.23587121  1  0.112042  0.078856  -0.00082  1.039237  -0.001
H  H9  1  0.31672679  0.67624019  0.19163378  1  0.296751  0.309042  -0.000227  0.986398  0.0
H  H10  1  0.12525771  0.32364355  0.80818113  1  0.297217  0.310918  -0.000227  0.985099  0.0
H  H11  1  0.55552540  0.53831318  0.17654706  1  0.292049  0.300932  -1e-06  1.012251  0.0
H  H12  1  0.37900164  0.46159268  0.82344874  1  0.292237  0.301385  -1e-06  1.012002  0.0
H  H13  1  0.47973881  0.88098021  0.97784670  1  0.287044  0.38107  -9.2e-05  0.963589  0.0
H  H14  1  0.50221415  0.11886052  0.02210894  1  0.286609  0.380225  -9e-05  0.964701  0.0
C  C15  1  0.83792622  0.39225700  0.01177769  1  0.213512  0.478948  -0.007066  4.201419  -0.005
C  C16  1  0.82614656  0.60804437  0.98832093  1  0.212434  0.475819  -0.007086  4.207065  -0.005
C  C17  1  0.95190178  0.76257590  0.66022170  1  0.031907  0.099007  0.000511  4.000703  0.0
C  C18  1  0.29148937  0.23748494  0.33968185  1  0.031939  0.09998  0.000521  3.99819  0.0
C  C19  1  0.83585536  0.67420945  0.49219207  1  -0.108192  -0.264242  -0.003208  3.94506  -0.004
C  C20  1  0.34364372  0.32572505  0.50775387  1  -0.107811  -0.265795  -0.003208  3.946911  -0.004
C  C21  1  0.60026599  0.71646440  0.41317613  1  0.121314  0.347749  0.002204  4.107839  0.001
C  C22  1  0.18724371  0.28354729  0.58677032  1  0.120439  0.346794  0.002209  4.109577  0.001
C  C23  1  0.49614907  0.84626342  0.51740117  1  -0.10663  -0.258847  -0.003346  3.947014  -0.004
C  C24  1  0.97911170  0.15359963  0.48261055  1  -0.10721  -0.258577  -0.003351  3.947086  -0.004
C  C25  1  0.62529783  0.92776435  0.68402576  1  0.025647  0.087165  -0.000654  4.023028  -0.001
C  C26  1  0.94135961  0.07225098  0.31592334  1  0.027256  0.088474  -0.00066  4.022408  -0.001
N  N27  1  0.85185838  0.88950535  0.75728811  1  -0.386695  -0.297764  -0.053893  3.679409  -0.069
N  N28  1  0.09432550  0.11073816  0.24259596  1  -0.387368  -0.298159  -0.053909  3.679114  -0.069
N  N29  1  0.48279701  0.63973658  0.24920885  1  -0.57686  -0.576639  0.0013  3.36425  0.001
N  N30  1  0.23364286  0.36029805  0.75070745  1  -0.577952  -0.579963  0.001302  3.365177  0.001
O  O31  1  0.99192857  0.28659479  0.96876533  1  -0.296202  -0.493352  -0.06252  2.368708  -0.089
O  O32  1  0.02310030  0.71352567  0.03113216  1  -0.296809  -0.49283  -0.062462  2.369975  -0.089
O  O33  1  0.69014575  0.33942910  0.06863970  1  -0.293902  -0.520983  -0.005557  2.296151  -0.009
O  O34  1  0.62139556  0.66098190  0.93148944  1  -0.292441  -0.518909  -0.005544  2.29978  -0.009
O  O35  1  0.39319374  0.00013216  0.00047974  1  -0.603588  -0.800131  -0.000259  2.089844  -0.002
