# generated using pymatgen
data_CuH8C6NClO
_symmetry_space_group_name_H-M   'P 1'
_cell_length_a   6.04011709
_cell_length_b   8.23589911
_cell_length_c   8.17017578
_cell_angle_alpha   72.03790834
_cell_angle_beta   77.54349914
_cell_angle_gamma   71.46679504
_symmetry_Int_Tables_number   1
_chemical_formula_structural   CuH8C6NClO
_chemical_formula_sum   'Cu2 H16 C12 N2 Cl2 O2'
_cell_volume   363.43885824
_cell_formula_units_Z   2
loop_
 _symmetry_equiv_pos_site_id
 _symmetry_equiv_pos_as_xyz
  1  'x, y, z'
loop_
 _atom_site_type_symbol
 _atom_site_label
 _atom_site_symmetry_multiplicity
 _atom_site_fract_x
 _atom_site_fract_y
 _atom_site_fract_z
 _atom_site_occupancy
 _atom_site_pbe_cm5_charge
 _atom_site_pbe_ddec_charge
 _atom_site_pbe_ddec_spin_density
 _atom_site_pbe_ddec_sum_bond_order
 _atom_site_pbe_magmom
Cu  Cu0  1  0.30758498  0.00077363  0.89806838  1  0.613381  0.708489  0.409022  2.343211  0.323
Cu  Cu1  1  0.69243621  0.99922296  0.10193396  1  0.613342  0.708413  -0.409047  2.342813  -0.323
H  H2  1  0.24851812  0.37674655  0.95177626  1  0.074172  0.081477  -7.9e-05  1.042275  0.0
H  H3  1  0.75147895  0.62326054  0.04821069  1  0.074166  0.08145  7.9e-05  1.04234  0.0
H  H4  1  0.54812365  0.38640220  0.90998566  1  0.081739  0.097129  0.001834  1.045755  0.002
H  H5  1  0.45188277  0.61360234  0.09002141  1  0.08177  0.09712  -0.001833  1.045883  -0.002
H  H6  1  0.40614733  0.39289073  0.73745404  1  0.078369  0.074187  -0.001663  1.038775  -0.002
H  H7  1  0.59386516  0.60711114  0.26254680  1  0.078421  0.074187  0.001664  1.038745  0.002
H  H8  1  0.86080070  0.17952007  0.74685190  1  0.10808  0.086973  0.000719  1.067701  0.001
H  H9  1  0.13918038  0.82050295  0.25314482  1  0.108095  0.086975  -0.000719  1.067753  -0.001
H  H10  1  0.56939472  0.13330895  0.57083400  1  0.118908  0.091772  0.000455  1.004594  0.001
H  H11  1  0.43058942  0.86668226  0.42917834  1  0.118884  0.091738  -0.000456  1.004515  -0.001
H  H12  1  0.74758150  0.36518360  0.45524280  1  0.103048  0.101907  0.000357  1.034285  0.0
H  H13  1  0.25241845  0.63482485  0.54475061  1  0.103037  0.101883  -0.000357  1.034168  0.0
H  H14  1  0.48736647  0.30739704  0.26993343  1  0.098457  0.11005  0.000389  1.056497  0.0
H  H15  1  0.51262998  0.69259290  0.73008471  1  0.098535  0.110239  -0.000389  1.056447  0.0
H  H16  1  0.06366410  0.43225606  0.21137377  1  0.10474  0.106927  -0.000147  1.011976  0.0
H  H17  1  0.93634456  0.56775639  0.78861822  1  0.104712  0.106933  0.000147  1.012028  0.0
C  C18  1  0.42176374  0.33425625  0.87679674  1  -0.18248  -0.148643  -0.000433  4.014244  -0.001
C  C19  1  0.57823765  0.66574822  0.12319647  1  -0.182497  -0.14853  0.000434  4.014291  0.001
C  C20  1  0.99278510  0.21389795  0.63801236  1  0.044041  0.093903  -0.000492  3.900542  -0.001
C  C21  1  0.00722011  0.78609595  0.36199213  1  0.043954  0.093767  0.000493  3.900273  0.001
C  C22  1  0.38989370  0.18747879  0.53857862  1  0.040398  0.074202  0.000198  3.954963  0.0
C  C23  1  0.61010379  0.81251772  0.46142137  1  0.040364  0.074185  -0.000198  3.954955  0.0
C  C24  1  0.93211320  0.31533060  0.47509248  1  -0.085087  -0.121991  0.001842  3.958597  0.002
C  C25  1  0.06788068  0.68466189  0.52490200  1  -0.085043  -0.121849  -0.00184  3.958772  -0.002
C  C26  1  0.34197253  0.28584955  0.37187787  1  -0.087398  -0.14129  0.002195  3.974545  0.002
C  C27  1  0.65801647  0.71412834  0.62812441  1  -0.087461  -0.141541  -0.002196  3.97433  -0.002
C  C28  1  0.10813145  0.35245791  0.33960717  1  -0.0624  -0.003388  -0.001804  3.929174  -0.002
C  C29  1  0.89187813  0.64752401  0.66039059  1  -0.062425  -0.003438  0.001805  3.929107  0.002
N  N30  1  0.21872271  0.15247124  0.66948689  1  -0.357079  -0.225389  0.028625  3.654418  0.038
N  N31  1  0.78125706  0.84752262  0.33052897  1  -0.356977  -0.225188  -0.028623  3.654004  -0.038
Cl  Cl32  1  0.10607079  0.80547475  0.91643605  1  -0.28767  -0.515609  0.040405  1.332493  0.047
Cl  Cl33  1  0.89395212  0.19453112  0.08355943  1  -0.287664  -0.515603  -0.040397  1.332447  -0.047
O  O34  1  0.50538846  0.14682320  0.91290203  1  -0.403165  -0.470657  0.008249  2.55549  0.012
O  O35  1  0.49461028  0.85318390  0.08708831  1  -0.403268  -0.470791  -0.008237  2.555522  -0.012
