# generated using pymatgen
data_GdH9C5(NO4)2
_symmetry_space_group_name_H-M   'P 1'
_cell_length_a   6.58573729
_cell_length_b   6.74352065
_cell_length_c   6.74363164
_cell_angle_alpha   64.08858704
_cell_angle_beta   73.08223491
_cell_angle_gamma   73.08334634
_symmetry_Int_Tables_number   1
_chemical_formula_structural   GdH9C5(NO4)2
_chemical_formula_sum   'Gd1 H9 C5 N2 O8'
_cell_volume   253.01304651
_cell_formula_units_Z   1
loop_
 _symmetry_equiv_pos_site_id
 _symmetry_equiv_pos_as_xyz
  1  'x, y, z'
loop_
 _atom_site_type_symbol
 _atom_site_label
 _atom_site_symmetry_multiplicity
 _atom_site_fract_x
 _atom_site_fract_y
 _atom_site_fract_z
 _atom_site_occupancy
 _atom_site_hle17_bader_spin_density
 _atom_site_hle17_ddec_charge
 _atom_site_hle17_ddec_spin_density
 _atom_site_hle17_ddec_sum_bond_order
 _atom_site_hle17_magmom
 _atom_site_hse06_10hf_bader_spin_density
 _atom_site_hse06_10hf_ddec_charge
 _atom_site_hse06_10hf_ddec_spin_density
 _atom_site_hse06_10hf_ddec_sum_bond_order
 _atom_site_hse06_10hf_magmom
 _atom_site_hse06_bader_spin_density
 _atom_site_hse06_ddec_charge
 _atom_site_hse06_ddec_spin_density
 _atom_site_hse06_ddec_sum_bond_order
 _atom_site_hse06_magmom
 _atom_site_pbe_bader_spin_density
 _atom_site_pbe_cm5_charge
 _atom_site_pbe_ddec_charge
 _atom_site_pbe_ddec_spin_density
 _atom_site_pbe_ddec_sum_bond_order
 _atom_site_pbe_magmom
Gd  Gd0  1  0.99999258  0.94473022  0.05526680  1  0  2.138844  0  1.83256  0  0  2.049812  0  2.183482  0  0  2.103558  0  2.132491  0  0  1.437915  2.009177  0  2.223806  0
H  H1  1  0.49998572  0.02472768  0.97528277  1  0  0.022852  0  0.961349  0  0  0.029978  0  1.031943  0  0  0.030851  0  1.026799  0  0  0.122698  0.02911  0  1.035681  0
H  H2  1  0.87721898  0.41478416  0.20637095  1  0  0.0022  0  0.935588  0  0  0.010612  0  1.010303  0  0  0.011683  0  1.004912  0  0  0.114785  0.009631  0  1.01422  0
H  H3  1  0.12276994  0.79363233  0.58520560  1  0  0.002186  0  0.935627  0  0  0.010574  0  1.010371  0  0  0.011655  0  1.004988  0  0  0.11474  0.009594  0  1.01429  0
H  H4  1  0.60159557  0.15312894  0.41270838  1  0  0.351337  0  0.891682  0  0  0.330149  0  0.955549  0  0  0.339711  0  0.947299  0  0  0.310546  0.323391  0  0.961386  0
H  H5  1  0.39839162  0.58728600  0.84689422  1  0  0.351333  0  0.891661  0  0  0.330159  0  0.955494  0  0  0.339724  0  0.94724  0  0  0.310473  0.323398  0  0.961336  0
H  H6  1  0.47191661  0.44274109  0.31344835  1  0  0.342025  0  0.892511  0  0  0.320604  0  0.959475  0  0  0.328901  0  0.952969  0  0  0.31046  0.314688  0  0.96422  0
H  H7  1  0.52810237  0.68657530  0.55721507  1  0  0.34202  0  0.892241  0  0  0.320617  0  0.959202  0  0  0.328927  0  0.952672  0  0  0.31034  0.314696  0  0.96395  0
H  H8  1  0.17802497  0.39372751  0.58379296  1  0  0.013675  0  0.923714  0  0  0.022323  0  0.998527  0  0  0.023617  0  0.993367  0  0  0.127414  0.021189  0  1.002254  0
H  H9  1  0.82201785  0.41622713  0.60625842  1  0  0.013833  0  0.923756  0  0  0.022478  0  0.998562  0  0  0.023774  0  0.993405  0  0  0.127475  0.021357  0  1.002271  0
C  C10  1  0.49999069  0.87120042  0.12880102  1  0  0.62615  0  3.845699  0  0  0.555378  0  4.156102  0  0  0.5909  0  4.143213  0  0  0.15697  0.531362  0  4.163869  0
C  C11  1  0.04270165  0.41447481  0.10319429  1  0  0.634022  0  3.878511  0  0  0.564402  0  4.191587  0  0  0.598073  0  4.182108  0  0  0.162622  0.541738  0  4.196885  0
C  C12  1  0.95728120  0.89680609  0.58552601  1  0  0.634031  0  3.879202  0  0  0.564416  0  4.192262  0  0  0.598068  0  4.182801  0  0  0.162592  0.541749  0  4.197565  0
C  C13  1  0.29860719  0.24111724  0.58249527  1  0  0.576966  0  3.817397  0  0  0.505724  0  4.118096  0  0  0.535514  0  4.115432  0  0  0.194812  0.485697  0  4.119184  0
C  C14  1  0.70142426  0.41748532  0.75889669  1  0  0.576874  0  3.816857  0  0  0.505622  0  4.11756  0  0  0.535412  0  4.114914  0  0  0.194876  0.485588  0  4.118637  0
N  N15  1  0.47096162  0.27974187  0.42248801  1  0  -0.602174  0  3.126088  0  0  -0.560567  0  3.370162  0  0  -0.582529  0  3.363731  0  0  -0.546754  -0.545689  0  3.3746  0
N  N16  1  0.52904892  0.57750938  0.72026060  1  0  -0.602283  0  3.125385  0  0  -0.560675  0  3.369395  0  0  -0.582647  0  3.362973  0  0  -0.546649  -0.545789  0  3.373836  0
O  O17  1  0.33305554  0.78169159  0.20669260  1  0  -0.687221  0  2.05747  0  0  -0.636856  0  2.314266  0  0  -0.663597  0  2.303033  0  0  -0.379322  -0.6179  0  2.321299  0
O  O18  1  0.66691957  0.79331567  0.21830546  1  0  -0.687169  0  2.057439  0  0  -0.636778  0  2.314192  0  0  -0.663517  0  2.302948  0  0  -0.37922  -0.617849  0  2.321286  0
O  O19  1  0.26740736  0.04978560  0.72493630  1  0  -0.648464  0  2.081389  0  0  -0.598102  0  2.337304  0  0  -0.623459  0  2.329807  0  0  -0.381325  -0.58011  0  2.34181  0
O  O20  1  0.73260368  0.27504769  0.95024354  1  0  -0.648438  0  2.081147  0  0  -0.598164  0  2.337229  0  0  -0.623488  0  2.329652  0  0  -0.381376  -0.580174  0  2.341742  0
O  O21  1  0.12911811  0.57956266  0.05915673  1  0  -0.704771  0  2.110607  0  0  -0.653506  0  2.370087  0  0  -0.68047  0  2.359941  0  0  -0.401191  -0.634461  0  2.376203  0
O  O22  1  0.87087858  0.94082395  0.42044860  1  0  -0.704872  0  2.110886  0  0  -0.653578  0  2.370352  0  0  -0.680544  0  2.36022  0  0  -0.401202  -0.634531  0  2.376466  0
O  O23  1  0.13231593  0.25612562  0.03759887  1  0  -0.671492  0  2.112261  0  0  -0.622329  0  2.365059  0  0  -0.650077  0  2.358996  0  0  -0.370865  -0.60295  0  2.368517  0
O  O24  1  0.86767949  0.96238620  0.74387257  1  0  -0.671464  0  2.112565  0  0  -0.622293  0  2.365373  0  0  -0.650041  0  2.359317  0  0  -0.370814  -0.602912  0  2.368834  0
