# generated using pymatgen
data_AgH11C10NClO2
_symmetry_space_group_name_H-M   'P 1'
_cell_length_a   4.81867649
_cell_length_b   6.63684466
_cell_length_c   8.88209507
_cell_angle_alpha   94.40250779
_cell_angle_beta   93.87648933
_cell_angle_gamma   77.79658636
_symmetry_Int_Tables_number   1
_chemical_formula_structural   AgH11C10NClO2
_chemical_formula_sum   'Ag1 H11 C10 N1 Cl1 O2'
_cell_volume   276.43362453
_cell_formula_units_Z   1
loop_
 _symmetry_equiv_pos_site_id
 _symmetry_equiv_pos_as_xyz
  1  'x, y, z'
loop_
 _atom_site_type_symbol
 _atom_site_label
 _atom_site_symmetry_multiplicity
 _atom_site_fract_x
 _atom_site_fract_y
 _atom_site_fract_z
 _atom_site_occupancy
 _atom_site_pbe_bader_spin_density
 _atom_site_pbe_cm5_charge
 _atom_site_pbe_ddec_charge
 _atom_site_pbe_ddec_spin_density
 _atom_site_pbe_ddec_sum_bond_order
 _atom_site_pbe_magmom
Ag  Ag0  1  0.53566395  0.02723065  0.75499029  1  0  0.429291  0.37528  0  1.733583  0
H  H1  1  0.13223508  0.71064542  0.83601006  1  0  0.10305  0.063195  0  0.997521  0
H  H2  1  0.71068156  0.78238922  0.99202965  1  0  0.070844  0.093297  0  1.10207  0
H  H3  1  0.92850037  0.54098932  0.03826285  1  0  0.083208  0.123089  0  1.035492  0
H  H4  1  0.61726697  0.54358718  0.92016918  1  0  0.087538  0.143343  0  1.033896  0
H  H5  1  0.04405071  0.58329690  0.51152994  1  0  0.101641  0.089773  0  0.992118  0
H  H6  1  0.07815261  0.83941368  0.57864395  1  0  0.099983  0.081259  0  1.020116  0
H  H7  1  0.60623372  0.53394190  0.35317840  1  0  0.102675  0.106102  0  1.010155  0
H  H8  1  0.22632245  0.68379284  0.16391973  1  0  0.10496  0.119069  0  1.012204  0
H  H9  1  0.40234049  0.28659673  0.27932200  1  0  0.101028  0.110016  0  1.018477  0
H  H10  1  0.77758856  0.13806281  0.47259748  1  0  0.102579  0.127381  0  1.035877  0
H  H11  1  0.63510792  0.62777179  0.65626243  1  0  0.300702  0.251634  0  0.932098  0
C  C12  1  0.09906201  0.39803024  0.75922338  1  0  0.189253  0.549453  0  4.191779  0
C  C13  1  0.96373508  0.62252149  0.80962507  1  0  -0.009998  0.045382  0  3.847777  0
C  C14  1  0.79392130  0.62325629  0.94848817  1  0  -0.259416  -0.424393  0  3.930914  0
C  C15  1  0.92657689  0.73840585  0.54824934  1  0  -0.077052  -0.097926  0  3.919233  0
C  C16  1  0.71446912  0.82659227  0.42611908  1  0  -0.022385  0.076042  0  3.998982  0
C  C17  1  0.55925883  0.69974818  0.33840995  1  0  -0.089675  -0.116748  0  3.95769  0
C  C18  1  0.34699389  0.78192344  0.23229536  1  0  -0.093972  -0.135126  0  3.976572  0
C  C19  1  0.29263346  0.99365299  0.21284525  1  0  0.012956  0.144034  0  4.049593  0
C  C20  1  0.44609368  0.12253107  0.29823304  1  0  -0.098712  -0.14955  0  4.018948  0
C  C21  1  0.65569678  0.03886122  0.40512746  1  0  -0.093631  -0.13275  0  3.984354  0
N  N22  1  0.77354241  0.72430697  0.68685441  1  0  -0.489384  -0.29292  0  3.522527  0
Cl  Cl23  1  0.03576629  0.09818027  0.07835565  1  0  0.025945  -0.060571  0  1.640675  0
O  O24  1  0.34099978  0.32972150  0.82779387  1  0  -0.346769  -0.514748  0  2.40381  0
O  O25  1  0.96949783  0.29977248  0.66256621  1  0  -0.334659  -0.573617  0  2.198313  0
