# generated using pymatgen
data_CuH3(CO)2
_symmetry_space_group_name_H-M   'P 1'
_cell_length_a   5.19281564
_cell_length_b   5.90430595
_cell_length_c   9.88202044
_cell_angle_alpha   90.02172958
_cell_angle_beta   93.67298949
_cell_angle_gamma   89.97648813
_symmetry_Int_Tables_number   1
_chemical_formula_structural   CuH3(CO)2
_chemical_formula_sum   'Cu4 H12 C8 O8'
_cell_volume   302.36008091
_cell_formula_units_Z   4
loop_
 _symmetry_equiv_pos_site_id
 _symmetry_equiv_pos_as_xyz
  1  'x, y, z'
loop_
 _atom_site_type_symbol
 _atom_site_label
 _atom_site_symmetry_multiplicity
 _atom_site_fract_x
 _atom_site_fract_y
 _atom_site_fract_z
 _atom_site_occupancy
 _atom_site_hle17_bader_spin_density
 _atom_site_hle17_ddec_charge
 _atom_site_hle17_ddec_spin_density
 _atom_site_hle17_ddec_sum_bond_order
 _atom_site_hle17_magmom
 _atom_site_hse06_10hf_bader_spin_density
 _atom_site_hse06_10hf_ddec_charge
 _atom_site_hse06_10hf_ddec_spin_density
 _atom_site_hse06_10hf_ddec_sum_bond_order
 _atom_site_hse06_10hf_magmom
 _atom_site_hse06_bader_spin_density
 _atom_site_hse06_ddec_charge
 _atom_site_hse06_ddec_spin_density
 _atom_site_hse06_ddec_sum_bond_order
 _atom_site_hse06_magmom
 _atom_site_pbe_bader_spin_density
 _atom_site_pbe_cm5_charge
 _atom_site_pbe_ddec_charge
 _atom_site_pbe_ddec_spin_density
 _atom_site_pbe_ddec_sum_bond_order
 _atom_site_pbe_magmom
Cu  Cu0  1  0.64451084  0.24994613  0.42265149  1  0  0.545226  0  1.681479  0  0  0.44133  0  2.151917  0  0  0.464341  0  2.077739  0  0  0.413016  0.425799  0  2.203454  0
Cu  Cu1  1  0.35549173  0.75007385  0.57735218  1  0  0.545227  0  1.681516  0  0  0.441323  0  2.152038  0  0  0.464334  0  2.077851  0  0  0.413015  0.425798  0  2.203554  0
Cu  Cu2  1  0.07542218  0.24975239  0.54630083  1  0  0.451181  0  1.750747  0  0  0.332237  0  2.238541  0  0  0.368366  0  2.147705  0  0  0.384501  0.307391  0  2.302079  0
Cu  Cu3  1  0.92457267  0.75025743  0.45370359  1  0  0.451171  0  1.750851  0  0  0.332189  0  2.238685  0  0  0.368352  0  2.147785  0  0  0.384538  0.307347  0  2.302236  0
H  H4  1  0.64789049  0.25004828  0.92744533  1  0  0.131701  0  0.953184  0  0  0.15011  0  1.012714  0  0  0.151794  0  1.013146  0  0  0.095491  0.148503  0  1.013259  0
H  H5  1  0.35209858  0.74993614  0.07256193  1  0  0.131701  0  0.953165  0  0  0.150096  0  1.012735  0  0  0.15178  0  1.013172  0  0  0.095526  0.148492  0  1.013277  0
H  H6  1  0.38716505  0.10099936  0.83829295  1  0  0.152217  0  0.947083  0  0  0.171039  0  1.005629  0  0  0.173949  0  1.004878  0  0  0.102352  0.168698  0  1.006555  0
H  H7  1  0.38709139  0.39913435  0.83832928  1  0  0.152153  0  0.946961  0  0  0.171097  0  1.005333  0  0  0.174015  0  1.00457  0  0  0.102408  0.16875  0  1.006269  0
H  H8  1  0.61282787  0.89897150  0.16170533  1  0  0.152185  0  0.94749  0  0  0.171048  0  1.005905  0  0  0.17396  0  1.005146  0  0  0.102385  0.168708  0  1.006837  0
H  H9  1  0.61288999  0.60083991  0.16169188  1  0  0.152111  0  0.946675  0  0  0.171077  0  1.005059  0  0  0.173993  0  1.004297  0  0  0.102381  0.168733  0  1.005998  0
H  H10  1  0.37874645  0.25000019  0.13313309  1  0  0.143145  0  0.962161  0  0  0.162031  0  1.021391  0  0  0.164265  0  1.021228  0  0  0.099321  0.160192  0  1.021765  0
H  H11  1  0.62127349  0.74997575  0.86686710  1  0  0.143228  0  0.962323  0  0  0.162105  0  1.021513  0  0  0.164342  0  1.021346  0  0  0.099329  0.160271  0  1.021884  0
H  H12  1  0.10137897  0.10029499  0.06394283  1  0  0.132423  0  0.959543  0  0  0.153638  0  1.016706  0  0  0.156016  0  1.016136  0  0  0.099789  0.151538  0  1.018009  0
H  H13  1  0.10125107  0.39977818  0.06404227  1  0  0.132463  0  0.959137  0  0  0.153595  0  1.016468  0  0  0.155946  0  1.015922  0  0  0.099764  0.151502  0  1.017771  0
H  H14  1  0.89863902  0.89968942  0.93604819  1  0  0.132558  0  0.959142  0  0  0.153707  0  1.016392  0  0  0.156083  0  1.015826  0  0  0.099841  0.151605  0  1.017702  0
H  H15  1  0.89876113  0.60020792  0.93594147  1  0  0.132682  0  0.959433  0  0  0.153774  0  1.016729  0  0  0.156125  0  1.016186  0  0  0.099843  0.151693  0  1.018019  0
C  C16  1  0.65129747  0.25002736  0.70888879  1  0  0.747488  0  3.759254  0  0  0.703509  0  4.032051  0  0  0.739788  0  4.028588  0  0  0.211627  0.678111  0  4.033851  0
C  C17  1  0.34871088  0.75002649  0.29111810  1  0  0.747397  0  3.759587  0  0  0.703508  0  4.032235  0  0  0.739784  0  4.028787  0  0  0.211536  0.678109  0  4.034041  0
C  C18  1  0.05114432  0.24999496  0.25645168  1  0  0.747269  0  3.796103  0  0  0.703057  0  4.070714  0  0  0.739261  0  4.066942  0  0  0.211317  0.677637  0  4.072736  0
C  C19  1  0.94884665  0.75001655  0.74353945  1  0  0.747546  0  3.795791  0  0  0.70313  0  4.070647  0  0  0.7393  0  4.066917  0  0  0.211349  0.677706  0  4.072667  0
C  C20  1  0.51341275  0.25003888  0.83771287  1  0  -0.460988  0  3.632049  0  0  -0.533716  0  3.857833  0  0  -0.543214  0  3.862455  0  0  -0.247252  -0.526656  0  3.854933  0
C  C21  1  0.48658403  0.74997941  0.16229668  1  0  -0.460913  0  3.632143  0  0  -0.5337  0  3.85795  0  0  -0.543203  0  3.862597  0  0  -0.247269  -0.526656  0  3.85505  0
C  C22  1  0.16813847  0.24998191  0.12164496  1  0  -0.440361  0  3.634305  0  0  -0.517214  0  3.861636  0  0  -0.526119  0  3.866368  0  0  -0.241417  -0.510354  0  3.858857  0
C  C23  1  0.83186217  0.74993983  0.87834345  1  0  -0.440858  0  3.634684  0  0  -0.517531  0  3.862057  0  0  -0.526424  0  3.866794  0  0  -0.241547  -0.510689  0  3.859268  0
O  O24  1  0.50645503  0.25005368  0.59778228  1  0  -0.626781  0  2.31554  0  0  -0.535217  0  2.633652  0  0  -0.56652  0  2.606646  0  0  -0.343383  -0.51338  0  2.651968  0
O  O25  1  0.49354752  0.75005606  0.40222139  1  0  -0.626425  0  2.315565  0  0  -0.535056  0  2.633813  0  0  -0.566358  0  2.606806  0  0  -0.343309  -0.513232  0  2.652145  0
O  O26  1  0.80482977  0.24996408  0.25534117  1  0  -0.609968  0  2.172414  0  0  -0.535316  0  2.457174  0  0  -0.56488  0  2.439974  0  0  -0.334597  -0.514273  0  2.468497  0
O  O27  1  0.19516121  0.75001017  0.74465097  1  0  -0.610129  0  2.1725  0  0  -0.535334  0  2.457246  0  0  -0.564913  0  2.440127  0  0  -0.334565  -0.51429  0  2.468556  0
O  O28  1  0.89663244  0.24991688  0.71324893  1  0  -0.576805  0  2.137423  0  0  -0.492797  0  2.400691  0  0  -0.526391  0  2.388278  0  0  -0.321131  -0.469608  0  2.409427  0
O  O29  1  0.10336242  0.75006246  0.28675650  1  0  -0.577035  0  2.137462  0  0  -0.492943  0  2.400561  0  0  -0.526545  0  2.388152  0  0  -0.321159  -0.469747  0  2.409306  0
O  O30  1  0.20219725  0.24994948  0.36410470  1  0  -0.620348  0  2.298144  0  0  -0.527392  0  2.590647  0  0  -0.560623  0  2.569448  0  0  -0.331809  -0.503851  0  2.604781  0
O  O31  1  0.79780337  0.75005355  0.63588473  1  0  -0.620465  0  2.298197  0  0  -0.527385  0  2.590696  0  0  -0.560603  0  2.569506  0  0  -0.331889  -0.503848  0  2.604836  0
