# generated using pymatgen
data_FeH16C8S2N2(ClO)2
_symmetry_space_group_name_H-M   'P 1'
_cell_length_a   6.84225933
_cell_length_b   6.94289847
_cell_length_c   8.67578425
_cell_angle_alpha   85.88757226
_cell_angle_beta   83.38445127
_cell_angle_gamma   58.48400410
_symmetry_Int_Tables_number   1
_chemical_formula_structural   FeH16C8S2N2(ClO)2
_chemical_formula_sum   'Fe1 H16 C8 S2 N2 Cl2 O2'
_cell_volume   348.97889191
_cell_formula_units_Z   1
loop_
 _symmetry_equiv_pos_site_id
 _symmetry_equiv_pos_as_xyz
  1  'x, y, z'
loop_
 _atom_site_type_symbol
 _atom_site_label
 _atom_site_symmetry_multiplicity
 _atom_site_fract_x
 _atom_site_fract_y
 _atom_site_fract_z
 _atom_site_occupancy
 _atom_site_pbe_bader_spin_density
 _atom_site_pbe_cm5_charge
 _atom_site_pbe_ddec_charge
 _atom_site_pbe_ddec_spin_density
 _atom_site_pbe_ddec_sum_bond_order
 _atom_site_pbe_magmom
Fe  Fe0  1  0.49951443  0.50055316  0.00012359  1  0  0.515595  0.503893  0  3.227313  0
H  H1  1  0.99274684  0.35214863  0.00973047  1  0  0.1179  0.103939  0  1.039751  0
H  H2  1  0.00641343  0.64890209  0.99027427  1  0  0.117789  0.103823  0  1.038678  0
H  H3  1  0.63803189  0.01878973  0.98805269  1  0  0.116312  0.100411  0  1.042865  0
H  H4  1  0.36097711  0.98228226  0.01232003  1  0  0.116485  0.100354  0  1.043232  0
H  H5  1  0.38080534  0.02294838  0.68190781  1  0  0.088374  0.153486  0  1.051216  0
H  H6  1  0.62028040  0.97629000  0.31879425  1  0  0.089051  0.15413  0  1.050649  0
H  H7  1  0.28478277  0.19632871  0.50896877  1  0  0.096471  0.162822  0  1.011329  0
H  H8  1  0.71666151  0.80206658  0.49138913  1  0  0.09655  0.162878  0  1.011771  0
H  H9  1  0.09720535  0.27684888  0.68819980  1  0  0.096155  0.163889  0  1.019438  0
H  H10  1  0.90380226  0.72209289  0.31185952  1  0  0.096036  0.164331  0  1.019264  0
H  H11  1  0.01637819  0.66403119  0.67051146  1  0  0.094367  0.163199  0  1.020574  0
H  H12  1  0.98436988  0.33501591  0.32882286  1  0  0.094161  0.162926  0  1.020323  0
H  H13  1  0.19834046  0.61366500  0.48888613  1  0  0.089068  0.147105  0  1.061971  0
H  H14  1  0.80260944  0.38479186  0.51051413  1  0  0.089033  0.14681  0  1.061257  0
H  H15  1  0.23140158  0.74517971  0.64795043  1  0  0.096699  0.163085  0  1.009158  0
H  H16  1  0.76900661  0.25437724  0.35110607  1  0  0.096829  0.163005  0  1.009645  0
C  C17  1  0.99479478  0.19541235  0.00525855  1  0  0.037175  0.030849  0  3.905476  0
C  C18  1  0.00417691  0.80576940  0.99479053  1  0  0.037406  0.031507  0  3.903176  0
C  C19  1  0.79944670  0.01121983  0.99360911  1  0  0.036719  0.026685  0  3.905302  0
C  C20  1  0.19954088  0.98997300  0.00653512  1  0  0.036494  0.026435  0  3.905912  0
C  C21  1  0.27577400  0.19561276  0.63610201  1  0  -0.239021  -0.491173  0  3.791553  0
C  C22  1  0.72529249  0.80346850  0.36424412  1  0  -0.239382  -0.492003  0  3.790971  0
C  C23  1  0.18581024  0.62477372  0.61576972  1  0  -0.242227  -0.504372  0  3.808552  0
C  C24  1  0.81485114  0.37437135  0.38358881  1  0  -0.241577  -0.502725  0  3.805857  0
S  S25  1  0.39990226  0.35234598  0.68581624  1  0  0.291478  0.66244  0  3.942369  0
S  S26  1  0.60038303  0.64744099  0.31450881  1  0  0.291305  0.662163  0  3.941944  0
N  N27  1  0.78959826  0.21096804  0.99918645  1  0  -0.351191  -0.158354  0  3.645946  0
N  N28  1  0.20932317  0.79023978  0.00095871  1  0  -0.351027  -0.158479  0  3.644913  0
Cl  Cl29  1  0.64931388  0.61609033  0.78027443  1  0  -0.267757  -0.477877  0  1.292232  0
Cl  Cl30  1  0.34994793  0.38462156  0.21970750  1  0  -0.267377  -0.477451  0  1.293499  0
O  O31  1  0.35670218  0.35952763  0.86453894  1  0  -0.319029  -0.498949  0  2.282401  0
O  O32  1  0.64182505  0.64186251  0.13570088  1  0  -0.318865  -0.498782  0  2.28396  0
