# generated using pymatgen
data_CuH2C6(NO2)2
_symmetry_space_group_name_H-M   'P 1'
_cell_length_a   5.21051942
_cell_length_b   6.71259617
_cell_length_c   10.14092279
_cell_angle_alpha   87.34652575
_cell_angle_beta   80.63228796
_cell_angle_gamma   71.31869019
_symmetry_Int_Tables_number   1
_chemical_formula_structural   CuH2C6(NO2)2
_chemical_formula_sum   'Cu2 H4 C12 N4 O8'
_cell_volume   331.51575090
_cell_formula_units_Z   2
loop_
 _symmetry_equiv_pos_site_id
 _symmetry_equiv_pos_as_xyz
  1  'x, y, z'
loop_
 _atom_site_type_symbol
 _atom_site_label
 _atom_site_symmetry_multiplicity
 _atom_site_fract_x
 _atom_site_fract_y
 _atom_site_fract_z
 _atom_site_occupancy
 _atom_site_hle17_ddec_charge
 _atom_site_hle17_ddec_spin_density
 _atom_site_hle17_ddec_sum_bond_order
 _atom_site_hle17_magmom
 _atom_site_hse06_10hf_ddec_charge
 _atom_site_hse06_10hf_ddec_spin_density
 _atom_site_hse06_10hf_ddec_sum_bond_order
 _atom_site_hse06_10hf_magmom
 _atom_site_hse06_ddec_charge
 _atom_site_hse06_ddec_spin_density
 _atom_site_hse06_ddec_sum_bond_order
 _atom_site_hse06_magmom
 _atom_site_pbe_cm5_charge
 _atom_site_pbe_ddec_charge
 _atom_site_pbe_ddec_spin_density
 _atom_site_pbe_ddec_sum_bond_order
 _atom_site_pbe_magmom
Cu  Cu0  1  0.99999876  0.00000183  0.99999979  1  0.849574  -0.688939  1.834559  -0.487  0.826929  -0.792372  2.224719  -0.614  0.91194  -0.869669  2.160391  -0.702  0.765218  0.774824  -0.714504  2.270121  -0.539
Cu  Cu1  1  0.00000348  0.49999905  0.49999947  1  0.857513  0.697767  1.818441  0.497  0.836443  0.796621  2.204965  0.62  0.923747  0.873676  2.140546  0.708  0.762842  0.780066  0.721405  2.252198  0.548
H  H2  1  0.82036726  0.35955436  0.79307283  1  0.112732  4.3e-05  0.897325  0.0  0.118082  3.8e-05  0.955504  0.0  0.121154  2.9e-05  0.951504  0.0  0.150566  0.115232  1.2e-05  0.958907  0.0
H  H3  1  0.17963327  0.64044872  0.20692526  1  0.112694  5.2e-05  0.897373  0.0  0.118087  3.8e-05  0.955504  0.0  0.121157  2.9e-05  0.951504  0.0  0.150564  0.115238  1.2e-05  0.958905  0.0
H  H4  1  0.79471095  0.97161538  0.65432526  1  0.165556  -6.7e-05  0.950757  0.0  0.168882  -3.1e-05  1.017469  0.0  0.173622  -2.9e-05  1.015269  0.0  0.12544  0.165129  -5.8e-05  1.019475  0.0
H  H5  1  0.20528697  0.02837990  0.34567825  1  0.165526  -6.9e-05  0.950798  0.0  0.168811  -3.1e-05  1.017554  0.0  0.173551  -2.9e-05  1.015355  0.0  0.125432  0.165064  -5.8e-05  1.019556  0.0
C  C6  1  0.03361363  0.26884193  0.75938220  1  0.361759  -0.000371  3.564309  0.0  0.316106  5e-06  3.827575  0.0  0.33795  1e-06  3.834369  0.0  0.219084  0.301323  -8.9e-05  3.82465  0.0
C  C7  1  0.96638430  0.73115803  0.24061721  1  0.361772  -0.000411  3.564316  0.0  0.316086  5e-06  3.827575  0.0  0.337929  1e-06  3.834372  0.0  0.21909  0.301306  -8.9e-05  3.82465  0.0
C  C8  1  0.43086550  0.21168393  0.60485174  1  0.160657  0.000455  3.673874  0.0  0.159047  0.000859  3.915657  0.0  0.168828  0.000466  3.930429  0.0  0.134402  0.152391  0.001086  3.906409  0.0
C  C9  1  0.56913502  0.78831446  0.39514947  1  0.16067  0.000439  3.673853  0.0  0.159053  0.00086  3.915615  0.0  0.168833  0.000466  3.930391  0.0  0.134414  0.152397  0.001086  3.906371  0.0
C  C10  1  0.57761867  0.05707966  0.68426233  1  -0.146492  -7.9e-05  3.605166  0.0  -0.170393  -7.2e-05  3.843261  0.0  -0.180076  -0.000113  3.859987  0.0  -0.054878  -0.164613  6e-06  3.834122  0.0
C  C11  1  0.42238055  0.94291716  0.31573806  1  -0.146491  -6.6e-05  3.605158  0.0  -0.170329  -7.2e-05  3.843268  0.0  -0.180025  -0.000114  3.859988  0.0  -0.054858  -0.16455  6e-06  3.834126  0.0
C  C12  1  0.42869203  0.00637329  0.80010698  1  0.187731  -6.1e-05  3.646307  0.0  0.186007  -0.000544  3.884948  0.0  0.198405  -0.000185  3.896577  0.0  0.146705  0.175778  -0.000783  3.880016  0.0
C  C13  1  0.57130526  0.99362825  0.19989440  1  0.187786  -4.6e-05  3.646127  0.0  0.185991  -0.000547  3.884834  0.0  0.19843  -0.000183  3.896407  0.0  0.14671  0.175762  -0.000783  3.879909  0.0
C  C14  1  0.54979100  0.83151399  0.89414818  1  0.588559  0.004918  3.932458  0.007  0.547108  7e-05  4.238752  0.002  0.582114  -3e-06  4.232778  0.001  0.203534  0.523219  0.000166  4.24153  0.002
C  C15  1  0.45020823  0.16848756  0.10585303  1  0.588612  0.004924  3.932369  0.007  0.547151  7e-05  4.238716  0.002  0.582148  -3e-06  4.232736  0.001  0.203567  0.523263  0.000166  4.241496  0.002
C  C16  1  0.55296290  0.27220002  0.46925520  1  0.580016  -0.004627  3.961796  -0.007  0.536117  -0.000117  4.268189  -0.002  0.570763  -0.000119  4.263903  -0.001  0.198582  0.512431  -9.2e-05  4.270733  -0.002
C  C17  1  0.44704282  0.72779994  0.53074551  1  0.580003  -0.004616  3.961812  -0.007  0.536103  -0.000116  4.268198  -0.002  0.570749  -0.00012  4.26391  -0.001  0.198538  0.512416  -9.2e-05  4.270745  -0.002
N  N18  1  0.16022366  0.11249667  0.83596738  1  -0.324642  -0.054345  3.271425  -0.067  -0.279274  -0.043811  3.557209  -0.057  -0.308854  -0.037463  3.568745  -0.051  -0.330506  -0.261418  -0.045239  3.552714  -0.057
N  N19  1  0.83977426  0.88750328  0.16403104  1  -0.324655  -0.054354  3.271324  -0.067  -0.279248  -0.04381  3.557112  -0.057  -0.30884  -0.037463  3.568637  -0.051  -0.330492  -0.261392  -0.045238  3.552619  -0.057
N  N20  1  0.16124693  0.31517419  0.64270510  1  -0.324691  0.057445  3.264564  0.071  -0.27944  0.04472  3.550637  0.058  -0.309677  0.03769  3.563615  0.052  -0.331835  -0.261189  0.046458  3.544056  0.058
N  N21  1  0.83875490  0.68482577  0.35729595  1  -0.324673  0.057468  3.264484  0.071  -0.279425  0.044719  3.550575  0.058  -0.309662  0.037689  3.563552  0.052  -0.331854  -0.261176  0.046456  3.543996  0.058
O  O22  1  0.79986265  0.73751406  0.87575921  1  -0.527774  -0.024119  1.898953  -0.031  -0.515946  -0.010843  2.131736  -0.016  -0.54204  -0.004565  2.122725  -0.007  -0.292486  -0.493761  -0.018252  2.135566  -0.025
O  O23  1  0.20013658  0.26248746  0.12424003  1  -0.527816  -0.024137  1.898921  -0.031  -0.515985  -0.010844  2.131714  -0.016  -0.542081  -0.004565  2.122705  -0.007  -0.292515  -0.493799  -0.018254  2.135546  -0.025
O  O24  1  0.37255674  0.80132292  0.99231068  1  -0.565475  -0.094512  2.015905  -0.125  -0.542325  -0.063491  2.286503  -0.092  -0.584786  -0.049585  2.278733  -0.076  -0.319698  -0.513333  -0.069586  2.291637  -0.097
O  O25  1  0.62743863  0.19868336  0.00769267  1  -0.565489  -0.094507  2.015923  -0.125  -0.542325  -0.063488  2.286523  -0.092  -0.584787  -0.049583  2.278755  -0.076  -0.319715  -0.513332  -0.069584  2.291656  -0.097
O  O26  1  0.37609180  0.39520357  0.40088767  1  -0.573209  0.089492  2.053225  0.119  -0.54468  0.060842  2.330349  0.088  -0.587641  0.047385  2.325647  0.072  -0.316976  -0.517343  0.066352  2.335177  0.092
O  O27  1  0.62391392  0.60479638  0.59911305  1  -0.573262  0.089479  2.053259  0.119  -0.544722  0.060844  2.330374  0.088  -0.587687  0.047385  2.325676  0.072  -0.316972  -0.517385  0.066353  2.335203  0.092
O  O28  1  0.80469569  0.20391528  0.43211104  1  -0.548258  0.021414  1.972657  0.028  -0.530961  0.010249  2.227542  0.015  -0.557584  0.004487  2.219966  0.007  -0.295953  -0.511278  0.016569  2.231681  0.023
O  O29  1  0.19530809  0.79608469  0.56789082  1  -0.548235  0.021427  1.972635  0.028  -0.530952  0.010248  2.227524  0.015  -0.557578  0.004487  2.219956  0.007  -0.29595  -0.511267  0.01657  2.231662  0.023
