# generated using pymatgen
data_CuH5C5NCl
_symmetry_space_group_name_H-M   'P 1'
_cell_length_a   3.75333190
_cell_length_b   8.59688377
_cell_length_c   8.90008408
_cell_angle_alpha   106.94549420
_cell_angle_beta   89.99793150
_cell_angle_gamma   89.99957536
_symmetry_Int_Tables_number   1
_chemical_formula_structural   CuH5C5NCl
_chemical_formula_sum   'Cu2 H10 C10 N2 Cl2'
_cell_volume   274.71004948
_cell_formula_units_Z   2
loop_
 _symmetry_equiv_pos_site_id
 _symmetry_equiv_pos_as_xyz
  1  'x, y, z'
loop_
 _atom_site_type_symbol
 _atom_site_label
 _atom_site_symmetry_multiplicity
 _atom_site_fract_x
 _atom_site_fract_y
 _atom_site_fract_z
 _atom_site_occupancy
 _atom_site_hle17_bader_spin_density
 _atom_site_hle17_ddec_charge
 _atom_site_hle17_ddec_spin_density
 _atom_site_hle17_ddec_sum_bond_order
 _atom_site_hle17_magmom
 _atom_site_hse06_10hf_bader_spin_density
 _atom_site_hse06_10hf_ddec_charge
 _atom_site_hse06_10hf_ddec_spin_density
 _atom_site_hse06_10hf_ddec_sum_bond_order
 _atom_site_hse06_10hf_magmom
 _atom_site_hse06_bader_spin_density
 _atom_site_hse06_ddec_charge
 _atom_site_hse06_ddec_spin_density
 _atom_site_hse06_ddec_sum_bond_order
 _atom_site_hse06_magmom
 _atom_site_pbe_bader_spin_density
 _atom_site_pbe_cm5_charge
 _atom_site_pbe_ddec_charge
 _atom_site_pbe_ddec_spin_density
 _atom_site_pbe_ddec_sum_bond_order
 _atom_site_pbe_magmom
Cu  Cu0  1  0.34527362  0.51377647  0.39201052  1  0  0.375809  0  1.982272  0  0  0.280805  0  2.48222  0  0  0.291738  0  2.422765  0  0  0.330565  0.275452  0  2.521371  0
Cu  Cu1  1  0.84526545  0.48622877  0.60798563  1  0  0.37583  0  1.982371  0  0  0.280845  0  2.482323  0  0  0.291752  0  2.422866  0  0  0.330613  0.275496  0  2.521544  0
H  H2  1  0.47724001  0.86260189  0.46335474  1  0  0.070222  0  0.970459  0  0  0.077477  0  1.040743  0  0  0.079726  0  1.039404  0  0  0.105296  0.076003  0  1.041518  0
H  H3  1  0.97725387  0.13741570  0.53664007  1  0  0.070366  0  0.970719  0  0  0.077647  0  1.040872  0  0  0.079888  0  1.039547  0  0  0.105383  0.076181  0  1.041647  0
H  H4  1  0.37800433  0.08111411  0.33207953  1  0  0.107033  0  0.971242  0  0  0.115182  0  1.035207  0  0  0.118142  0  1.03491  0  0  0.0954  0.112885  0  1.035705  0
H  H5  1  0.87806052  0.91887859  0.66789005  1  0  0.107145  0  0.970453  0  0  0.115176  0  1.034596  0  0  0.11814  0  1.0343  0  0  0.095338  0.112879  0  1.03509  0
H  H6  1  0.04387300  0.01146982  0.07843028  1  0  0.090239  0  0.958344  0  0  0.102358  0  1.01916  0  0  0.104649  0  1.017608  0  0  0.101911  0.100817  0  1.020131  0
H  H7  1  0.54388698  0.98851464  0.92156697  1  0  0.090315  0  0.958358  0  0  0.102409  0  1.019186  0  0  0.104723  0  1.017583  0  0  0.101946  0.100869  0  1.020159  0
H  H8  1  0.96337094  0.51917213  0.10547496  1  0  0.069203  0  0.967539  0  0  0.076512  0  1.038702  0  0  0.078818  0  1.036965  0  0  0.104791  0.074826  0  1.039917  0
H  H9  1  0.46335561  0.48085307  0.89456043  1  0  0.069367  0  0.966871  0  0  0.076574  0  1.038184  0  0  0.078885  0  1.036447  0  0  0.104759  0.074881  0  1.039412  0
H  H10  1  0.84894908  0.72073446  0.95682234  1  0  0.103314  0  0.961661  0  0  0.109986  0  1.029912  0  0  0.113429  0  1.028765  0  0  0.096829  0.107016  0  1.031821  0
H  H11  1  0.34897010  0.27924278  0.04316600  1  0  0.103264  0  0.962171  0  0  0.109908  0  1.030394  0  0  0.113343  0  1.029254  0  0  0.096772  0.106944  0  1.032304  0
C  C12  1  0.33848458  0.83726099  0.35127946  1  0  0.114867  0  3.688614  0  0  0.087701  0  3.932973  0  0  0.093646  0  3.95132  0  0  0.034458  0.082851  0  3.921231  0
C  C13  1  0.83858645  0.16275881  0.64870624  1  0  0.114651  0  3.689811  0  0  0.087466  0  3.934159  0  0  0.093412  0  3.952498  0  0  0.034247  0.082561  0  3.92254  0
C  C14  1  0.28000924  0.95796167  0.27874027  1  0  -0.121985  0  3.744154  0  0  -0.129933  0  3.987639  0  0  -0.137201  0  4.009309  0  0  -0.089596  -0.125595  0  3.974516  0
C  C15  1  0.78002178  0.04209500  0.72124552  1  0  -0.122343  0  3.743506  0  0  -0.130114  0  3.986948  0  0  -0.137397  0  4.008638  0  0  -0.0896  -0.125754  0  3.973822  0
C  C16  1  0.09967862  0.91806469  0.13567594  1  0  -0.011031  0  3.720996  0  0  -0.031218  0  3.968755  0  0  -0.026008  0  3.985648  0  0  -0.074736  -0.035661  0  3.957939  0
C  C17  1  0.59963823  0.08193400  0.86433656  1  0  -0.01091  0  3.720916  0  0  -0.031085  0  3.96855  0  0  -0.02585  0  3.985411  0  0  -0.074615  -0.035524  0  3.957745  0
C  C18  1  0.05459392  0.64458235  0.14998628  1  0  0.106714  0  3.699163  0  0  0.078735  0  3.946672  0  0  0.085168  0  3.963916  0  0  0.031403  0.074393  0  3.935851  0
C  C19  1  0.55459501  0.35539362  0.85002753  1  0  0.106552  0  3.697381  0  0  0.078684  0  3.944918  0  0  0.085082  0  3.962231  0  0  0.031477  0.07435  0  3.934106  0
C  C20  1  0.98765129  0.75791750  0.06939738  1  0  -0.121668  0  3.74499  0  0  -0.131478  0  3.993097  0  0  -0.139168  0  4.015845  0  0  -0.08908  -0.125723  0  3.977406  0
C  C21  1  0.48762145  0.24205170  0.93064339  1  0  -0.121604  0  3.745488  0  0  -0.131414  0  3.993593  0  0  -0.139096  0  4.016325  0  0  -0.089156  -0.125669  0  3.977923  0
N  N22  1  0.22885544  0.68211790  0.28885308  1  0  -0.28742  0  3.392837  0  0  -0.21303  0  3.685652  0  0  -0.224771  0  3.692906  0  0  -0.367813  -0.205037  0  3.680409  0
N  N23  1  0.72883718  0.31786989  0.71112136  1  0  -0.287268  0  3.392584  0  0  -0.21294  0  3.685457  0  0  -0.224665  0  3.692684  0  0  -0.367708  -0.204932  0  3.680252  0
Cl  Cl24  1  0.30797570  0.66402023  0.67189617  1  0  -0.49535  0  1.435244  0  0  -0.423132  0  1.830616  0  0  -0.4382  0  1.790093  0  0  -0.279442  -0.412263  0  1.857718  0
Cl  Cl25  1  0.80796565  0.33597439  0.32810562  1  0  -0.495312  0  1.43518  0  0  -0.423119  0  1.830542  0  0  -0.438186  0  1.790024  0  0  -0.279441  -0.412245  0  1.857603  0
