# generated using pymatgen
data_CdNiH16(C5N3)2
_symmetry_space_group_name_H-M   'P 1'
_cell_length_a   6.97564125
_cell_length_b   7.66904923
_cell_length_c   9.50743493
_cell_angle_alpha   89.99906002
_cell_angle_beta   103.82508140
_cell_angle_gamma   90.00041118
_symmetry_Int_Tables_number   1
_chemical_formula_structural   CdNiH16(C5N3)2
_chemical_formula_sum   'Cd1 Ni1 H16 C10 N6'
_cell_volume   493.88014677
_cell_formula_units_Z   1
loop_
 _symmetry_equiv_pos_site_id
 _symmetry_equiv_pos_as_xyz
  1  'x, y, z'
loop_
 _atom_site_type_symbol
 _atom_site_label
 _atom_site_symmetry_multiplicity
 _atom_site_fract_x
 _atom_site_fract_y
 _atom_site_fract_z
 _atom_site_occupancy
 _atom_site_pbe_bader_charge
 _atom_site_pbe_bader_spin_density
 _atom_site_pbe_cm5_charge
 _atom_site_pbe_ddec_charge
 _atom_site_pbe_ddec_spin_density
 _atom_site_pbe_ddec_sum_bond_order
 _atom_site_pbe_magmom
Cd  Cd0  1  0.00002234  0.00000391  0.00000986  1  1.264401  0  0.817985  0.891075  0  2.382292  0
Ni  Ni1  1  0.50001106  0.49999597  0.99999966  1  0.633411  0  0.397335  0.119144  0  3.868232  0
H  H2  1  0.98162802  0.89326948  0.71865278  1  0.388529  0  0.299176  0.278958  0  0.944864  0
H  H3  1  0.33695542  0.88553543  0.80774889  1  0.063846  0  0.103461  0.083516  0  0.989  0
H  H4  1  0.20068518  0.88466543  0.53742007  1  -0.015379  0  0.083736  0.067674  0  1.001333  0
H  H5  1  0.56875273  0.88531626  0.63594509  1  0.026613  0  0.086589  0.084075  0  0.990646  0
H  H6  1  0.01838028  0.89324741  0.28138273  1  0.388306  0  0.299058  0.278987  0  0.944211  0
H  H7  1  0.66304572  0.88554148  0.19224771  1  0.064183  0  0.10351  0.083588  0  0.989159  0
H  H8  1  0.79927799  0.88465377  0.46258313  1  -0.014905  0  0.083672  0.067608  0  1.001216  0
H  H9  1  0.43121274  0.88532513  0.36403848  1  0.02634  0  0.086547  0.084125  0  0.99077  0
H  H10  1  0.01837236  0.10672749  0.28137294  1  0.388376  0  0.299156  0.278872  0  0.945082  0
H  H11  1  0.66304834  0.11447197  0.19224475  1  0.064138  0  0.103417  0.08344  0  0.98896  0
H  H12  1  0.79927773  0.11533285  0.46258180  1  -0.014855  0  0.083694  0.067633  0  1.001252  0
H  H13  1  0.43120787  0.11467288  0.36403117  1  0.026349  0  0.086518  0.084075  0  0.99077  0
H  H14  1  0.98161410  0.10675217  0.71863887  1  0.388158  0  0.299107  0.279036  0  0.944138  0
H  H15  1  0.33695498  0.11446071  0.80774228  1  0.064159  0  0.103566  0.083678  0  0.989269  0
H  H16  1  0.20068766  0.11534060  0.53741287  1  -0.015385  0  0.083717  0.067646  0  1.001273  0
H  H17  1  0.56875834  0.11467054  0.63594365  1  0.026715  0  0.08659  0.084054  0  0.990777  0
C  C18  1  0.65987116  0.66904792  0.95201202  1  0.794126  0  0.015537  0.046836  0  3.857921  0
C  C19  1  0.34016594  0.66904442  0.04799101  1  0.793375  0  0.015548  0.046867  0  3.856817  0
C  C20  1  0.34016081  0.33093471  0.04799135  1  0.79374  0  0.015563  0.046882  0  3.857614  0
C  C21  1  0.65987739  0.33096950  0.95200049  1  0.793995  0  0.015297  0.046692  0  3.857696  0
C  C22  1  0.26195702  0.00001402  0.75043863  1  0.278016  0  -0.075835  0.023671  0  3.903907  0
C  C23  1  0.27836122  0.99999622  0.59330999  1  0.011228  0  -0.167101  -0.169746  0  3.977306  0
C  C24  1  0.49190941  0.99999966  0.57877296  1  -0.036651  0  -0.167732  -0.143093  0  3.942532  0
C  C25  1  0.73804550  0.99999339  0.24956217  1  0.277654  0  -0.075683  0.023927  0  3.903527  0
C  C26  1  0.72161607  0.00000075  0.40668260  1  0.01104  0  -0.166881  -0.169458  0  3.976888  0
C  C27  1  0.50806387  0.99999611  0.42120929  1  -0.011705  0  -0.167763  -0.143521  0  3.942804  0
N  N28  1  0.76245422  0.77797599  0.92343044  1  -1.336922  0  -0.375103  -0.386344  0  3.21606  0
N  N29  1  0.23756015  0.77799733  0.07658123  1  -1.336095  0  -0.375174  -0.386499  0  3.215017  0
N  N30  1  0.23757672  0.22200403  0.07658645  1  -1.336494  0  -0.375171  -0.386443  0  3.216017  0
N  N31  1  0.76247467  0.22203615  0.92341944  1  -1.336851  0  -0.374908  -0.386308  0  3.215853  0
N  N32  1  0.05709245  0.99998069  0.76739821  1  -1.055708  0  -0.623709  -0.565335  0  3.366186  0
N  N33  1  0.94291055  0.00002541  0.23261740  1  -1.055747  0  -0.62372  -0.56531  0  3.366282  0
