# generated using pymatgen
data_ThH4(C2O5)2
_symmetry_space_group_name_H-M   'P 1'
_cell_length_a   6.64073665
_cell_length_b   7.74869723
_cell_length_c   10.41102855
_cell_angle_alpha   71.43605265
_cell_angle_beta   71.41247031
_cell_angle_gamma   64.68399316
_symmetry_Int_Tables_number   1
_chemical_formula_structural   ThH4(C2O5)2
_chemical_formula_sum   'Th2 H8 C8 O20'
_cell_volume   448.52925594
_cell_formula_units_Z   2
loop_
 _symmetry_equiv_pos_site_id
 _symmetry_equiv_pos_as_xyz
  1  'x, y, z'
loop_
 _atom_site_type_symbol
 _atom_site_label
 _atom_site_symmetry_multiplicity
 _atom_site_fract_x
 _atom_site_fract_y
 _atom_site_fract_z
 _atom_site_occupancy
 _atom_site_hle17_bader_spin_density
 _atom_site_hle17_ddec_charge
 _atom_site_hle17_ddec_spin_density
 _atom_site_hle17_ddec_sum_bond_order
 _atom_site_hle17_magmom
 _atom_site_hse06_10hf_bader_spin_density
 _atom_site_hse06_10hf_ddec_charge
 _atom_site_hse06_10hf_ddec_spin_density
 _atom_site_hse06_10hf_ddec_sum_bond_order
 _atom_site_hse06_10hf_magmom
 _atom_site_hse06_bader_spin_density
 _atom_site_hse06_ddec_charge
 _atom_site_hse06_ddec_spin_density
 _atom_site_hse06_ddec_sum_bond_order
 _atom_site_hse06_magmom
 _atom_site_pbe_bader_spin_density
 _atom_site_pbe_cm5_charge
 _atom_site_pbe_ddec_charge
 _atom_site_pbe_ddec_spin_density
 _atom_site_pbe_ddec_sum_bond_order
 _atom_site_pbe_magmom
Th  Th0  1  0.73991372  0.24992879  0.75005862  1  0  2.476368  0  2.481387  0  0  2.342336  0  3.028286  0  0  2.450975  0  2.94413  0  0  1.594611  2.262575  0  3.087563  0
Th  Th1  1  0.26009485  0.75006936  0.24994121  1  0  2.476396  0  2.481264  0  0  2.342284  0  3.028255  0  0  2.450978  0  2.943991  0  0  1.59464  2.262491  0  3.087525  0
H  H2  1  0.52536142  0.92617647  0.84794117  1  0  0.460149  0  0.821768  0  0  0.426455  0  0.888431  0  0  0.439565  0  0.869224  0  0  0.314556  0.41699  0  0.902291  0
H  H3  1  0.29990575  0.57375781  0.65212435  1  0  0.460915  0  0.819063  0  0  0.427383  0  0.886504  0  0  0.440501  0  0.867305  0  0  0.31547  0.417911  0  0.900347  0
H  H4  1  0.47463555  0.07380408  0.15206528  1  0  0.460284  0  0.821644  0  0  0.426534  0  0.888364  0  0  0.43967  0  0.869127  0  0  0.314609  0.417075  0  0.902215  0
H  H5  1  0.70009906  0.42624467  0.34787806  1  0  0.46095  0  0.819039  0  0  0.427416  0  0.886467  0  0  0.440538  0  0.86726  0  0  0.315513  0.417947  0  0.900304  0
H  H6  1  0.39795521  0.08285067  0.72576816  1  0  0.460341  0  0.796412  0  0  0.432189  0  0.861917  0  0  0.443406  0  0.845537  0  0  0.331211  0.424063  0  0.873804  0
H  H7  1  0.20694116  0.41693990  0.77427155  1  0  0.459117  0  0.797821  0  0  0.430892  0  0.863938  0  0  0.442162  0  0.847464  0  0  0.330536  0.422721  0  0.875922  0
H  H8  1  0.60204017  0.91714613  0.27422372  1  0  0.460222  0  0.796715  0  0  0.432067  0  0.862124  0  0  0.443285  0  0.845739  0  0  0.331187  0.423944  0  0.874004  0
H  H9  1  0.79307013  0.58305833  0.22572282  1  0  0.459079  0  0.797824  0  0  0.43078  0  0.864067  0  0  0.44205  0  0.847595  0  0  0.330523  0.422608  0  0.876047  0
C  C10  1  0.45843208  0.41886368  0.05005656  1  0  0.563342  0  3.900252  0  0  0.517866  0  4.201469  0  0  0.54997  0  4.192493  0  0  0.22955  0.495921  0  4.206891  0
C  C11  1  0.92748211  0.08113605  0.44992447  1  0  0.564535  0  3.899008  0  0  0.518674  0  4.201402  0  0  0.550812  0  4.192276  0  0  0.228928  0.496753  0  4.206703  0
C  C12  1  0.54156417  0.58112416  0.94994960  1  0  0.563292  0  3.90003  0  0  0.517774  0  4.201325  0  0  0.549888  0  4.192341  0  0  0.229587  0.495829  0  4.206752  0
C  C13  1  0.07252774  0.91884904  0.55007082  1  0  0.564265  0  3.899205  0  0  0.518389  0  4.201619  0  0  0.550531  0  4.192494  0  0  0.228779  0.496476  0  4.206918  0
C  C14  1  0.94955419  0.92130825  0.01220570  1  0  0.550053  0  3.916295  0  0  0.500191  0  4.22777  0  0  0.532077  0  4.219857  0  0  0.225154  0.478291  0  4.232384  0
C  C15  1  0.88330807  0.57850444  0.48775470  1  0  0.548936  0  3.922569  0  0  0.499553  0  4.232758  0  0  0.531398  0  4.224921  0  0  0.224683  0.477768  0  4.237399  0
C  C16  1  0.05045383  0.07868832  0.98780284  1  0  0.549986  0  3.916479  0  0  0.500278  0  4.227749  0  0  0.532165  0  4.219836  0  0  0.225175  0.478377  0  4.232363  0
C  C17  1  0.11669295  0.42150251  0.51224141  1  0  0.54905  0  3.922449  0  0  0.4997  0  4.232599  0  0  0.531552  0  4.224756  0  0  0.224705  0.477921  0  4.237243  0
O  O18  1  0.83130406  0.94513808  0.93053934  1  0  -0.564438  0  2.106446  0  0  -0.5212  0  2.353339  0  0  -0.54956  0  2.345477  0  0  -0.324138  -0.501151  0  2.358166  0
O  O19  1  0.70722535  0.55488272  0.56947893  1  0  -0.563953  0  2.110081  0  0  -0.520487  0  2.356231  0  0  -0.548826  0  2.348406  0  0  -0.323384  -0.500607  0  2.361077  0
O  O20  1  0.16869216  0.05485711  0.06946295  1  0  -0.564324  0  2.106918  0  0  -0.521073  0  2.3537  0  0  -0.549438  0  2.34584  0  0  -0.32404  -0.501023  0  2.358521  0
O  O21  1  0.29277331  0.44513740  0.43051380  1  0  -0.563916  0  2.109964  0  0  -0.520494  0  2.356169  0  0  -0.54884  0  2.348335  0  0  -0.323426  -0.500632  0  2.361026  0
O  O22  1  0.52516026  0.04212100  0.77047413  1  0  -0.860144  0  1.856875  0  0  -0.812264  0  2.060939  0  0  -0.837288  0  2.024318  0  0  -0.596987  -0.794231  0  2.086676  0
O  O23  1  0.33820384  0.45770913  0.72954595  1  0  -0.86008  0  1.856506  0  0  -0.812365  0  2.060952  0  0  -0.83744  0  2.024283  0  0  -0.59741  -0.794325  0  2.086728  0
O  O24  1  0.47485280  0.95789767  0.22951809  1  0  -0.860109  0  1.856958  0  0  -0.812174  0  2.061051  0  0  -0.837235  0  2.024364  0  0  -0.597025  -0.79416  0  2.086784  0
O  O25  1  0.66180143  0.54229634  0.27045152  1  0  -0.860105  0  1.856483  0  0  -0.812273  0  2.061075  0  0  -0.83736  0  2.024402  0  0  -0.597466  -0.794246  0  2.086856  0
O  O26  1  0.50912071  0.26861396  0.00353256  1  0  -0.633178  0  2.078966  0  0  -0.582881  0  2.314308  0  0  -0.613876  0  2.306765  0  0  -0.312348  -0.56089  0  2.318787  0
O  O27  1  0.78136620  0.23120836  0.49655250  1  0  -0.633393  0  2.078608  0  0  -0.583129  0  2.314608  0  0  -0.614059  0  2.306962  0  0  -0.311969  -0.560773  0  2.318849  0
O  O28  1  0.49086678  0.73138104  0.99648217  1  0  -0.63311  0  2.078739  0  0  -0.582817  0  2.314136  0  0  -0.613816  0  2.306576  0  0  -0.312362  -0.560816  0  2.318617  0
O  O29  1  0.21863562  0.76878989  0.50344014  1  0  -0.633308  0  2.079038  0  0  -0.582974  0  2.314996  0  0  -0.613908  0  2.307354  0  0  -0.31188  -0.560612  0  2.319231  0
O  O30  1  0.99330358  0.77992793  0.11526496  1  0  -0.629416  0  2.114902  0  0  -0.583899  0  2.363197  0  0  -0.61426  0  2.355823  0  0  -0.337644  -0.56263  0  2.367776  0
O  O31  1  0.88870264  0.71969481  0.38450010  1  0  -0.629485  0  2.113784  0  0  -0.584804  0  2.362357  0  0  -0.615122  0  2.354958  0  0  -0.338071  -0.563329  0  2.366803  0
O  O32  1  0.00669471  0.22007171  0.88473161  1  0  -0.629549  0  2.114643  0  0  -0.584075  0  2.362874  0  0  -0.614433  0  2.355502  0  0  -0.337751  -0.562803  0  2.367462  0
O  O33  1  0.11127687  0.28031651  0.61549550  1  0  -0.629542  0  2.113908  0  0  -0.58489  0  2.362492  0  0  -0.615204  0  2.355093  0  0  -0.338103  -0.563409  0  2.36694  0
O  O34  1  0.35018523  0.44417595  0.17015185  1  0  -0.584098  0  2.060837  0  0  -0.546676  0  2.302159  0  0  -0.574661  0  2.293451  0  0  -0.326481  -0.526929  0  2.307609  0
O  O35  1  0.96480334  0.05591853  0.32975575  1  0  -0.58557  0  2.060667  0  0  -0.547867  0  2.302258  0  0  -0.575827  0  2.293472  0  0  -0.326287  -0.528142  0  2.30777  0
O  O36  1  0.64980950  0.55581181  0.82986017  1  0  -0.584043  0  2.060937  0  0  -0.546605  0  2.302279  0  0  -0.57459  0  2.293572  0  0  -0.32643  -0.526863  0  2.307745  0
O  O37  1  0.03519110  0.94408685  0.67024715  1  0  -0.585519  0  2.060502  0  0  -0.547817  0  2.302097  0  0  -0.575778  0  2.293318  0  0  -0.326216  -0.52809  0  2.307618  0
