# generated using pymatgen
data_CuH3C4(NCl)2
_symmetry_space_group_name_H-M   'P 1'
_cell_length_a   6.74226517
_cell_length_b   6.80599319
_cell_length_c   7.44379787
_cell_angle_alpha   62.62407072
_cell_angle_beta   90.28050030
_cell_angle_gamma   90.74039819
_symmetry_Int_Tables_number   1
_chemical_formula_structural   CuH3C4(NCl)2
_chemical_formula_sum   'Cu2 H6 C8 N4 Cl4'
_cell_volume   303.30009090
_cell_formula_units_Z   2
loop_
 _symmetry_equiv_pos_site_id
 _symmetry_equiv_pos_as_xyz
  1  'x, y, z'
loop_
 _atom_site_type_symbol
 _atom_site_label
 _atom_site_symmetry_multiplicity
 _atom_site_fract_x
 _atom_site_fract_y
 _atom_site_fract_z
 _atom_site_occupancy
 _atom_site_hle17_ddec_charge
 _atom_site_hle17_ddec_spin_density
 _atom_site_hle17_ddec_sum_bond_order
 _atom_site_hle17_magmom
 _atom_site_hse06_10hf_ddec_charge
 _atom_site_hse06_10hf_ddec_spin_density
 _atom_site_hse06_10hf_ddec_sum_bond_order
 _atom_site_hse06_10hf_magmom
 _atom_site_hse06_ddec_charge
 _atom_site_hse06_ddec_spin_density
 _atom_site_hse06_ddec_sum_bond_order
 _atom_site_hse06_magmom
 _atom_site_pbe_cm5_charge
 _atom_site_pbe_ddec_charge
 _atom_site_pbe_ddec_spin_density
 _atom_site_pbe_ddec_sum_bond_order
 _atom_site_pbe_magmom
Cu  Cu0  1  0.50037269  0.29166676  0.41751144  1  0.706778  -0.607828  1.997761  -0.43  0.701496  -0.73359  2.394597  -0.567  0.794219  -0.824448  2.318722  -0.66  0.565238  0.649697  -0.633907  2.441112  -0.481
Cu  Cu1  1  0.49962372  0.70833423  0.58248859  1  0.706824  0.607835  1.99776  0.43  0.701531  0.733585  2.394604  0.567  0.794221  0.824445  2.318702  0.66  0.565274  0.649729  0.633886  2.441133  0.481
H  H2  1  0.07148746  0.17091122  0.00020224  1  0.133052  1e-06  0.953007  0.0  0.143491  1e-06  1.010366  0.0  0.148108  0.0  1.008476  0.0  0.104106  0.140261  1e-06  1.011734  0.0
H  H3  1  0.92851342  0.82909480  0.99979445  1  0.133025  -5e-06  0.952874  0.0  0.143449  -2e-06  1.010273  0.0  0.148065  -0.0  1.008389  0.0  0.104089  0.14022  -1e-06  1.011641  0.0
H  H4  1  0.90351354  0.10275496  0.32880157  1  0.095988  0.000468  0.958398  -0.001  0.103324  6.5e-05  1.023417  -0.001  0.106396  3.5e-05  1.018832  -0.001  0.109132  0.101338  7.6e-05  1.026533  -0.001
H  H5  1  0.09695874  0.56885205  0.32861239  1  0.096363  0.000468  0.958519  -0.001  0.103292  6.9e-05  1.023793  -0.001  0.106461  3.7e-05  1.01913  -0.001  0.109418  0.101306  7.6e-05  1.026905  -0.001
H  H6  1  0.09648729  0.89724645  0.67120799  1  0.096049  -0.000468  0.958423  0.001  0.103366  -6.5e-05  1.023446  0.001  0.106432  -3.5e-05  1.018855  0.001  0.109177  0.101383  -7.7e-05  1.026555  0.001
H  H7  1  0.90305106  0.43115923  0.67138574  1  0.096294  -0.000463  0.958562  0.001  0.103233  -6.8e-05  1.023806  0.001  0.106402  -3.6e-05  1.019149  0.001  0.109401  0.101249  -7.6e-05  1.026915  0.001
C  C8  1  0.59273024  0.44627159  0.00001206  1  0.321611  -3.3e-05  3.750752  0.0  0.297705  1e-06  4.004125  0.0  0.315489  -1e-06  4.016325  0.0  0.255872  0.285262  -1.4e-05  3.997481  0.0
C  C9  1  0.40726633  0.55371925  0.99998195  1  0.32147  -3.3e-05  3.751034  0.0  0.297673  0.0  4.004313  0.0  0.315458  1e-06  4.016515  0.0  0.255758  0.285228  1e-05  3.997666  0.0
C  C10  1  0.93194556  0.24958017  0.00011690  1  -0.138058  6.7e-05  3.617932  0.0  -0.149787  5e-06  3.860536  0.0  -0.160967  8e-06  3.875402  0.0  -0.070562  -0.142393  6e-06  3.850331  0.0
C  C11  1  0.06806425  0.75042591  0.99986826  1  -0.138002  4e-05  3.617906  0.0  -0.149741  -6e-06  3.860566  0.0  -0.160924  -8e-06  3.875429  0.0  -0.070538  -0.14235  -5e-06  3.850369  0.0
C  C12  1  0.84122819  0.21120597  0.18125618  1  0.206921  0.000526  3.610092  0.001  0.175588  -0.000383  3.856367  0.0  0.191747  6e-06  3.867409  0.001  0.075339  0.164889  -0.000655  3.848943  0.0
C  C13  1  0.15905228  0.60790448  0.18109753  1  0.208387  0.000596  3.608796  0.001  0.177431  -0.000336  3.855135  0.0  0.19349  3.6e-05  3.866102  0.001  0.075953  0.166694  -0.000658  3.8478  0.0
C  C14  1  0.15876674  0.78879636  0.81874249  1  0.206791  -0.000617  3.610264  -0.001  0.175539  0.000385  3.856491  0.0  0.191706  -5e-06  3.867524  -0.001  0.075263  0.164846  0.000655  3.849066  0.0
C  C15  1  0.84094413  0.39209882  0.81890184  1  0.208398  -0.000682  3.609014  -0.001  0.177493  0.000336  3.855208  0.0  0.193545  -3.5e-05  3.866178  -0.001  0.075985  0.166763  0.000658  3.847871  0.0
N  N16  1  0.67080035  0.31210980  0.17986725  1  -0.329686  -0.046842  3.283536  -0.058  -0.275444  -0.043534  3.553624  -0.057  -0.308578  -0.03859  3.572316  -0.053  -0.320793  -0.254252  -0.042423  3.54212  -0.054
N  N17  1  0.32956344  0.50844545  0.17974717  1  -0.331059  -0.04681  3.285364  -0.058  -0.276949  -0.04348  3.555407  -0.057  -0.31002  -0.038552  3.574002  -0.053  -0.321288  -0.255875  -0.042382  3.544098  -0.054
N  N18  1  0.32920196  0.68788469  0.82013274  1  -0.329569  0.046912  3.283674  0.058  -0.275399  0.043535  3.553742  0.057  -0.308521  0.03859  3.572408  0.053  -0.320759  -0.254205  0.042432  3.542244  0.054
N  N19  1  0.67043587  0.49153863  0.82025000  1  -0.331056  0.046878  3.285372  0.058  -0.276963  0.043483  3.555463  0.057  -0.310023  0.03855  3.574047  0.053  -0.321389  -0.255895  0.042393  3.544168  0.054
Cl  Cl20  1  0.70644290  0.04802699  0.65007930  1  -0.485285  -0.136168  1.037601  -0.156  -0.500446  -0.086496  1.338904  -0.104  -0.538495  -0.068381  1.316548  -0.085  -0.291454  -0.478828  -0.089716  1.354556  -0.105
Cl  Cl21  1  0.29381402  0.30188568  0.64995662  1  -0.484948  -0.136167  1.039075  -0.156  -0.499688  -0.086518  1.340227  -0.104  -0.537835  -0.068404  1.317899  -0.085  -0.290884  -0.478099  -0.089733  1.355916  -0.105
Cl  Cl22  1  0.29355202  0.95198053  0.34993233  1  -0.485324  0.136163  1.037693  0.156  -0.500479  0.086496  1.338995  0.104  -0.53852  0.068383  1.316629  0.085  -0.291456  -0.478852  0.08972  1.354642  0.105
Cl  Cl23  1  0.70618679  0.69810919  0.35005288  1  -0.484964  0.136162  1.039085  0.156  -0.499715  0.086517  1.340259  0.104  -0.537855  0.068404  1.317923  0.085  -0.290882  -0.478116  0.089734  1.355948  0.105
