# generated using pymatgen
data_CuMoH5C2NO4
_symmetry_space_group_name_H-M   'P 1'
_cell_length_a   5.60659054
_cell_length_b   6.80244809
_cell_length_c   9.30082476
_cell_angle_alpha   101.33140155
_cell_angle_beta   102.76635520
_cell_angle_gamma   114.37921555
_symmetry_Int_Tables_number   1
_chemical_formula_structural   CuMoH5C2NO4
_chemical_formula_sum   'Cu2 Mo2 H10 C4 N2 O8'
_cell_volume   298.12043215
_cell_formula_units_Z   2
loop_
 _symmetry_equiv_pos_site_id
 _symmetry_equiv_pos_as_xyz
  1  'x, y, z'
loop_
 _atom_site_type_symbol
 _atom_site_label
 _atom_site_symmetry_multiplicity
 _atom_site_fract_x
 _atom_site_fract_y
 _atom_site_fract_z
 _atom_site_occupancy
 _atom_site_pbe_cm5_charge
 _atom_site_pbe_ddec_charge
 _atom_site_pbe_ddec_spin_density
 _atom_site_pbe_ddec_sum_bond_order
 _atom_site_pbe_magmom
Cu  Cu0  1  0.44814239  0.88645699  0.12266940  1  0.709069  1.002388  0.641841  2.228403  0.511
Cu  Cu1  1  0.55185185  0.11353077  0.87733826  1  0.709111  1.002514  -0.641808  2.228349  -0.511
Mo  Mo2  1  0.68358971  0.66033852  0.88067973  1  1.484363  2.072096  -0.009229  4.8001  -0.011
Mo  Mo3  1  0.31643994  0.33965673  0.11933993  1  1.484449  2.072078  0.009222  4.801348  0.011
H  H4  1  0.39897784  0.12273593  0.33830937  1  0.288645  0.252373  6e-06  1.00408  0.0
H  H5  1  0.60102571  0.87726872  0.66169216  1  0.288608  0.252376  -7e-06  1.004045  0.0
H  H6  1  0.28720434  0.67171366  0.36966328  1  0.106245  0.093179  0.000625  1.020674  0.001
H  H7  1  0.71278566  0.32830262  0.63034139  1  0.106299  0.093292  -0.000625  1.020504  -0.001
H  H8  1  0.03886058  0.76095809  0.29973680  1  0.114167  0.120901  -0.000285  0.982615  0.0
H  H9  1  0.96113674  0.23905160  0.70027003  1  0.114222  0.121045  0.000286  0.9826  0.0
H  H10  1  0.88454648  0.22173204  0.41759385  1  0.114833  0.115531  -0.000464  0.969841  0.0
H  H11  1  0.11541831  0.77824859  0.58241766  1  0.114821  0.11559  0.000466  0.969685  0.0
H  H12  1  0.78862911  0.94786266  0.43843796  1  0.111693  0.097736  0.000636  0.989402  0.001
H  H13  1  0.21137103  0.05215546  0.56156611  1  0.111716  0.097848  -0.000634  0.989666  -0.001
C  C14  1  0.24641975  0.81776366  0.38168546  1  -0.073347  -0.062032  -0.004537  3.839631  -0.008
C  C15  1  0.75362144  0.18224765  0.61827556  1  -0.073677  -0.062515  0.004536  3.839589  0.008
C  C16  1  0.73680735  0.08800524  0.45055024  1  -0.071066  -0.062581  -0.004649  3.864021  -0.008
C  C17  1  0.26313352  0.91199616  0.54941600  1  -0.071254  -0.062962  0.004655  3.86315  0.008
N  N18  1  0.45378563  0.99442999  0.33978120  1  -0.497148  -0.312767  0.073806  3.538952  0.097
N  N19  1  0.54623079  0.00557820  0.66021817  1  -0.497051  -0.312846  -0.07385  3.537713  -0.097
O  O20  1  0.75300464  0.69407540  0.71060454  1  -0.54875  -0.728743  -0.001716  1.686471  -0.003
O  O21  1  0.24701417  0.30592092  0.28938809  1  -0.548796  -0.728659  0.001717  1.686849  0.003
O  O22  1  0.99830204  0.76734392  0.03098358  1  -0.561361  -0.814967  -0.005929  1.965634  -0.007
O  O23  1  0.00171548  0.23264603  0.96903272  1  -0.561377  -0.815059  0.005927  1.965858  0.007
O  O24  1  0.51441606  0.18343532  0.08635528  1  -0.592248  -0.89111  0.005336  2.207939  0.008
O  O25  1  0.48556632  0.81656399  0.91364927  1  -0.592199  -0.891165  -0.005325  2.207685  -0.008
O  O26  1  0.52441038  0.64096794  0.15548827  1  -0.585014  -0.88177  0.036819  2.097386  0.05
O  O27  1  0.47558629  0.35901131  0.84451205  1  -0.584952  -0.881774  -0.036821  2.097336  -0.05
