# generated using pymatgen
data_Ba2CoH14(C3O8)2
_symmetry_space_group_name_H-M   'P 1'
_cell_length_a   6.90041141
_cell_length_b   7.14144387
_cell_length_c   8.73846336
_cell_angle_alpha   82.39127540
_cell_angle_beta   71.24908670
_cell_angle_gamma   81.33882594
_symmetry_Int_Tables_number   1
_chemical_formula_structural   Ba2CoH14(C3O8)2
_chemical_formula_sum   'Ba2 Co1 H14 C6 O16'
_cell_volume   401.49036832
_cell_formula_units_Z   1
loop_
 _symmetry_equiv_pos_site_id
 _symmetry_equiv_pos_as_xyz
  1  'x, y, z'
loop_
 _atom_site_type_symbol
 _atom_site_label
 _atom_site_symmetry_multiplicity
 _atom_site_fract_x
 _atom_site_fract_y
 _atom_site_fract_z
 _atom_site_occupancy
 _atom_site_hse06_10hf_ddec_charge
 _atom_site_hse06_10hf_ddec_spin_density
 _atom_site_hse06_10hf_ddec_sum_bond_order
 _atom_site_hse06_10hf_magmom
 _atom_site_hse06_ddec_charge
 _atom_site_hse06_ddec_spin_density
 _atom_site_hse06_ddec_sum_bond_order
 _atom_site_hse06_magmom
 _atom_site_pbe_cm5_charge
 _atom_site_pbe_ddec_charge
 _atom_site_pbe_ddec_spin_density
 _atom_site_pbe_ddec_sum_bond_order
 _atom_site_pbe_magmom
Ba  Ba0  1  0.09735317  0.73499408  0.35211458  1  1.504941  0.00057  1.539359  0.0  1.546114  0.000634  1.495503  0.0  0.92008  1.474736  0.000496  1.570489  0.0
Ba  Ba1  1  0.90264723  0.26500524  0.64788618  1  1.504914  0.00057  1.539394  0.0  1.546086  0.000634  1.49554  0.0  0.920074  1.47471  0.000496  1.570524  0.0
Co  Co2  1  0.99999847  0.99999999  0.00000153  1  0.8339  -1.010525  2.751057  -0.95  0.941703  -1.010636  2.645738  -0.954  0.58111  0.775245  -1.007966  2.8139  -0.94
H  H3  1  0.59496396  0.89980743  0.06477777  1  0.016344  0.00027  1.020619  0.0  0.015943  0.000202  1.015983  0.0  0.119159  0.015864  0.000369  1.024911  0.0
H  H4  1  0.40503606  0.10019473  0.93522278  1  0.016431  0.00027  1.020581  0.0  0.01603  0.000202  1.015945  0.0  0.119182  0.015951  0.000369  1.024876  0.0
H  H5  1  0.01228818  0.37075836  0.08564203  1  0.02064  0.000224  1.002705  0.0  0.020855  0.000168  0.997384  0.0  0.120499  0.019766  0.000307  1.007553  0.0
H  H6  1  0.98771259  0.62923811  0.91436008  1  0.02061  0.000224  1.002668  0.0  0.020822  0.000168  0.997347  0.0  0.120501  0.019732  0.000307  1.007514  0.0
H  H7  1  0.46734901  0.38732302  0.11418350  1  0.007726  -0.001911  1.00942  -0.002  0.008235  -0.001479  1.003933  -0.002  0.114539  0.007686  -0.002436  1.01308  -0.003
H  H8  1  0.53264741  0.61268339  0.88581407  1  0.007723  -0.001911  1.009489  -0.002  0.008231  -0.001479  1.004002  -0.002  0.114554  0.007669  -0.002436  1.013168  -0.003
H  H9  1  0.34894295  0.05722956  0.42405217  1  0.39229  2.2e-05  0.939371  0.0  0.401878  2.9e-05  0.925222  0.0  0.310596  0.385524  1.9e-05  0.949333  0.0
H  H10  1  0.65105917  0.94276834  0.57594717  1  0.392289  2.2e-05  0.939383  0.0  0.401879  2.9e-05  0.925229  0.0  0.310589  0.385521  1.9e-05  0.949348  0.0
H  H11  1  0.30124394  0.92684034  0.59133259  1  0.403139  -1.7e-05  0.927132  0.0  0.413972  -1.5e-05  0.911302  0.0  0.306884  0.395438  -2.5e-05  0.938371  0.0
H  H12  1  0.69875951  0.07315899  0.40866854  1  0.403167  -1.7e-05  0.927103  0.0  0.413992  -1.5e-05  0.91128  0.0  0.306893  0.395468  -2.5e-05  0.938338  0.0
H  H13  1  0.38537627  0.34988516  0.42069617  1  0.379523  6e-06  0.965944  0.0  0.390403  2e-06  0.949861  0.0  0.298383  0.371804  9e-06  0.977319  0.0
H  H14  1  0.61462605  0.65011132  0.57930212  1  0.37944  6e-06  0.966084  0.0  0.390318  3e-06  0.950012  0.0  0.298333  0.371719  9e-06  0.977468  0.0
H  H15  1  0.35010124  0.40519389  0.59678469  1  0.396457  1.1e-05  0.937371  0.0  0.40814  2.3e-05  0.920266  0.0  0.301314  0.388182  5e-06  0.949496  0.0
H  H16  1  0.64990088  0.59480401  0.40321464  1  0.396479  1.1e-05  0.937339  0.0  0.408163  2.3e-05  0.920235  0.0  0.301335  0.388206  5e-06  0.949459  0.0
C  C17  1  0.65278678  0.80559124  0.15557448  1  0.512463  0.003126  4.181391  0.002  0.550816  0.001029  4.173911  0.0  0.160361  0.484946  0.005627  4.188151  0.003
C  C18  1  0.34721457  0.19441235  0.84442787  1  0.512315  0.003126  4.181598  0.002  0.550668  0.001031  4.17412  0.0  0.160302  0.484802  0.005626  4.188347  0.003
C  C19  1  0.04728357  0.27596825  0.18661239  1  0.532324  0.003047  4.159263  0.002  0.570404  0.001112  4.15135  0.0  0.169004  0.504968  0.005361  4.166133  0.003
C  C20  1  0.95271702  0.72402964  0.81338847  1  0.532398  0.003047  4.159046  0.002  0.570486  0.001112  4.151119  0.0  0.16903  0.505053  0.005362  4.165909  0.003
C  C21  1  0.58606424  0.27196952  0.13476321  1  0.522779  0.001903  4.209566  0.001  0.557661  0.001555  4.200303  0.001  0.160662  0.499094  0.002392  4.214468  0.001
C  C22  1  0.41393598  0.72803122  0.86523515  1  0.522819  0.001903  4.209703  0.001  0.557704  0.001556  4.200436  0.001  0.16067  0.499143  0.002391  4.214606  0.001
O  O23  1  0.83606435  0.82223642  0.15502142  1  -0.565131  0.007618  2.562772  0.006  -0.612764  0.008979  2.554162  0.006  -0.345673  -0.534539  0.005593  2.568876  0.004
O  O24  1  0.16393529  0.17776859  0.84498006  1  -0.56511  0.007618  2.562736  0.006  -0.612743  0.008979  2.554128  0.006  -0.34568  -0.534538  0.005594  2.568871  0.004
O  O25  1  0.54004452  0.68982272  0.25087464  1  -0.555385  0.002272  2.283974  0.002  -0.582066  0.001038  2.274416  0.001  -0.328204  -0.53705  0.003444  2.290736  0.003
O  O26  1  0.45995474  0.31018513  0.74912778  1  -0.555349  0.002271  2.284104  0.002  -0.582032  0.001038  2.274544  0.001  -0.32818  -0.537015  0.003444  2.290863  0.003
O  O27  1  0.07097976  0.34680535  0.30225566  1  -0.57975  0.002282  2.285772  0.002  -0.607388  0.001529  2.277884  0.001  -0.35365  -0.560431  0.003153  2.291081  0.003
O  O28  1  0.92901778  0.65319253  0.69774598  1  -0.579777  0.002281  2.28571  0.002  -0.607414  0.001529  2.277813  0.001  -0.353694  -0.560467  0.003153  2.291024  0.003
O  O29  1  0.06231429  0.09590838  0.17486517  1  -0.561063  0.006768  2.513626  0.005  -0.608844  0.008225  2.505093  0.005  -0.337708  -0.53031  0.004456  2.519563  0.003
O  O30  1  0.93768898  0.90409238  0.82513356  1  -0.561099  0.006768  2.513529  0.005  -0.608881  0.008225  2.504991  0.005  -0.337689  -0.530334  0.004456  2.519438  0.003
O  O31  1  0.73378732  0.22624551  0.01081486  1  -0.591514  -0.021822  2.407294  -0.037  -0.625244  -0.018523  2.394401  -0.032  -0.3204  -0.567919  -0.025749  2.414399  -0.043
O  O32  1  0.26621253  0.77375808  0.98918100  1  -0.59159  -0.021823  2.407378  -0.037  -0.625318  -0.018523  2.394476  -0.032  -0.320447  -0.567987  -0.025749  2.414468  -0.043
O  O33  1  0.55819489  0.19969657  0.28082979  1  -0.555077  0.000853  2.274927  0.0  -0.580213  0.000711  2.26372  0.0  -0.301807  -0.537338  0.000954  2.28227  0.0
O  O34  1  0.44180265  0.80030130  0.71917070  1  -0.555033  0.000853  2.274988  0.0  -0.580171  0.00071  2.263785  0.0  -0.301791  -0.537298  0.000954  2.282334  0.0
O  O35  1  0.24301316  0.98605546  0.50373480  1  -0.836181  -1.4e-05  2.040735  0.0  -0.856262  2.8e-05  2.01034  0.0  -0.631871  -0.821687  -5.4e-05  2.061888  0.0
O  O36  1  0.75698743  0.01394244  0.49626492  1  -0.836206  -1.5e-05  2.040726  0.0  -0.856276  2.8e-05  2.010351  0.0  -0.631861  -0.821716  -5.4e-05  2.061881  0.0
O  O37  1  0.28622778  0.42394128  0.50779234  1  -0.861458  5.7e-05  2.09279  0.0  -0.882475  7.1e-05  2.06081  0.0  -0.652717  -0.846335  6.3e-05  2.115085  0.0
O  O38  1  0.71377262  0.57605804  0.49220728  1  -0.861385  5.8e-05  2.092881  0.0  -0.88241  6.9e-05  2.060893  0.0  -0.65268  -0.846263  6.3e-05  2.115177  0.0
