# generated using pymatgen
data_ZnH6C4NO7
_symmetry_space_group_name_H-M   'P 1'
_cell_length_a   7.11026351
_cell_length_b   7.17636728
_cell_length_c   8.19093331
_cell_angle_alpha   84.87835846
_cell_angle_beta   83.02459800
_cell_angle_gamma   62.17044176
_symmetry_Int_Tables_number   1
_chemical_formula_structural   ZnH6C4NO7
_chemical_formula_sum   'Zn2 H12 C8 N2 O14'
_cell_volume   366.62108450
_cell_formula_units_Z   2
loop_
 _symmetry_equiv_pos_site_id
 _symmetry_equiv_pos_as_xyz
  1  'x, y, z'
loop_
 _atom_site_type_symbol
 _atom_site_label
 _atom_site_symmetry_multiplicity
 _atom_site_fract_x
 _atom_site_fract_y
 _atom_site_fract_z
 _atom_site_occupancy
 _atom_site_hle17_bader_spin_density
 _atom_site_hle17_ddec_charge
 _atom_site_hle17_ddec_spin_density
 _atom_site_hle17_ddec_sum_bond_order
 _atom_site_hle17_magmom
 _atom_site_hse06_10hf_bader_spin_density
 _atom_site_hse06_10hf_ddec_charge
 _atom_site_hse06_10hf_ddec_spin_density
 _atom_site_hse06_10hf_ddec_sum_bond_order
 _atom_site_hse06_10hf_magmom
 _atom_site_hse06_bader_spin_density
 _atom_site_hse06_ddec_charge
 _atom_site_hse06_ddec_spin_density
 _atom_site_hse06_ddec_sum_bond_order
 _atom_site_hse06_magmom
 _atom_site_pbe_bader_spin_density
 _atom_site_pbe_cm5_charge
 _atom_site_pbe_ddec_charge
 _atom_site_pbe_ddec_spin_density
 _atom_site_pbe_ddec_sum_bond_order
 _atom_site_pbe_magmom
Zn  Zn0  1  0.00000000  0.00000000  0.00000000  1  0  1.217031  0  1.630136  0  0  1.058509  0  2.068096  0  0  1.105964  0  2.0074  0  0  0.672172  1.025043  0  2.10995  0
Zn  Zn1  1  0.50000043  0.49999957  0.50000032  1  0  1.05415  0  1.84141  0  0  0.883978  0  2.292853  0  0  0.927755  0  2.240911  0  0  0.68119  0.853557  0  2.328347  0
H  H2  1  0.28637683  0.60658467  0.08617060  1  0  0.429493  0  0.864871  0  0  0.39586  0  0.935734  0  0  0.406201  0  0.920982  0  0  0.298805  0.388608  0  0.946062  0
H  H3  1  0.71362329  0.39341605  0.91382999  1  0  0.429483  0  0.864884  0  0  0.395848  0  0.935751  0  0  0.406194  0  0.920992  0  0  0.298812  0.388596  0  0.946079  0
H  H4  1  0.42339010  0.72229629  0.01021599  1  0  0.42871  0  0.861849  0  0  0.392295  0  0.939693  0  0  0.404084  0  0.922364  0  0  0.298238  0.383931  0  0.951977  0
H  H5  1  0.57661002  0.27770443  0.98978460  1  0  0.428745  0  0.861792  0  0  0.392318  0  0.939664  0  0  0.404103  0  0.92234  0  0  0.298252  0.383945  0  0.951951  0
H  H6  1  0.31028768  0.05699170  0.80624309  1  0  0.42939  0  0.872661  0  0  0.395035  0  0.940374  0  0  0.406906  0  0.923264  0  0  0.289172  0.386681  0  0.952373  0
H  H7  1  0.68971244  0.94300901  0.19375750  1  0  0.429371  0  0.872689  0  0  0.395013  0  0.94041  0  0  0.406884  0  0.923299  0  0  0.289167  0.386658  0  0.952409  0
H  H8  1  0.20339796  0.22370949  0.94653466  1  0  0.42622  0  0.847997  0  0  0.396823  0  0.919878  0  0  0.406246  0  0.906174  0  0  0.300015  0.39016  0  0.929558  0
H  H9  1  0.79660000  0.77629280  0.05346604  1  0  0.426184  0  0.847908  0  0  0.396789  0  0.919896  0  0  0.406214  0  0.906188  0  0  0.300002  0.390127  0  0.929575  0
H  H10  1  0.38067208  0.90748144  0.39305618  1  0  0.430176  0  0.866926  0  0  0.397415  0  0.93296  0  0  0.408386  0  0.917096  0  0  0.294177  0.389709  0  0.944077  0
H  H11  1  0.61932804  0.09251928  0.60694442  1  0  0.430195  0  0.866901  0  0  0.397436  0  0.932935  0  0  0.408407  0  0.917071  0  0  0.294174  0.38973  0  0.944052  0
H  H12  1  0.30525433  0.79368439  0.28104726  1  0  0.424831  0  0.876084  0  0  0.395717  0  0.936495  0  0  0.406332  0  0.921181  0  0  0.289482  0.388203  0  0.947327  0
H  H13  1  0.69474720  0.20631633  0.71895197  1  0  0.424903  0  0.875991  0  0  0.395798  0  0.936385  0  0  0.406411  0  0.921074  0  0  0.289524  0.388283  0  0.947218  0
C  C14  1  0.13264553  0.69053538  0.72377003  1  0  0.652154  0  3.893995  0  0  0.596667  0  4.189617  0  0  0.631613  0  4.18062  0  0  0.223129  0.573005  0  4.195114  0
C  C15  1  0.86735459  0.30946534  0.27622934  1  0  0.65178  0  3.894425  0  0  0.596519  0  4.189701  0  0  0.631472  0  4.180699  0  0  0.223093  0.57286  0  4.195194  0
C  C16  1  0.05881384  0.59061557  0.60756400  1  0  0.081438  0  3.648327  0  0  0.07441  0  3.895822  0  0  0.07567  0  3.908147  0  0  0.137585  0.073044  0  3.888263  0
C  C17  1  0.94118629  0.40938517  0.39243293  1  0  0.081433  0  3.648476  0  0  0.074342  0  3.89592  0  0  0.075602  0  3.908242  0  0  0.137539  0.072973  0  3.888361  0
C  C18  1  0.85125373  0.61114553  0.62281308  1  0  0.1076  0  3.609201  0  0  0.09688  0  3.866643  0  0  0.100746  0  3.877704  0  0  0.14722  0.093625  0  3.859944  0
C  C19  1  0.14874713  0.38885361  0.37718634  1  0  0.107661  0  3.609205  0  0  0.096951  0  3.866638  0  0  0.100817  0  3.877702  0  0  0.147255  0.093698  0  3.85994  0
C  C20  1  0.67570302  0.73622736  0.75363034  1  0  0.669139  0  3.896244  0  0  0.599217  0  4.222746  0  0  0.633784  0  4.211644  0  0  0.229646  0.575744  0  4.229733  0
C  C21  1  0.32429783  0.26377178  0.24636907  1  0  0.669045  0  3.896387  0  0  0.599116  0  4.222892  0  0  0.633676  0  4.211793  0  0  0.229574  0.575641  0  4.229882  0
N  N22  1  0.20273218  0.47972468  0.48660595  1  0  -0.269512  0  3.202371  0  0  -0.214146  0  3.461305  0  0  -0.223579  0  3.472094  0  0  -0.280142  -0.207809  0  3.454561  0
N  N23  1  0.79726794  0.52027605  0.51339220  1  0  -0.26946  0  3.202326  0  0  -0.214081  0  3.461253  0  0  -0.223513  0  3.472042  0  0  -0.280109  -0.207741  0  3.454507  0
O  O24  1  0.29031263  0.74431887  0.08084748  1  0  -0.828032  0  1.969101  0  0  -0.75728  0  2.178676  0  0  -0.780446  0  2.143215  0  0  -0.552825  -0.740993  0  2.203359  0
O  O25  1  0.70968749  0.25568185  0.91915312  1  0  -0.828055  0  1.969039  0  0  -0.75731  0  2.178647  0  0  -0.780472  0  2.143176  0  0  -0.552855  -0.741009  0  2.203365  0
O  O26  1  0.98479887  0.83132780  0.81202593  1  0  -0.627218  0  2.101313  0  0  -0.557517  0  2.357367  0  0  -0.586541  0  2.345787  0  0  -0.296795  -0.537276  0  2.364614  0
O  O27  1  0.01520198  0.16867134  0.18797348  1  0  -0.626999  0  2.101335  0  0  -0.557402  0  2.3573  0  0  -0.586438  0  2.34573  0  0  -0.296743  -0.53716  0  2.364543  0
O  O28  1  0.16922131  0.15404923  0.86523305  1  0  -0.825265  0  1.847079  0  0  -0.76443  0  2.048498  0  0  -0.786922  0  2.015509  0  0  -0.57621  -0.748468  0  2.07133  0
O  O29  1  0.83077880  0.84595148  0.13476755  1  0  -0.825205  0  1.847012  0  0  -0.764373  0  2.048526  0  0  -0.786866  0  2.015536  0  0  -0.576188  -0.748409  0  2.07135  0
O  O30  1  0.33098281  0.62584177  0.72426009  1  0  -0.597978  0  2.072637  0  0  -0.537802  0  2.330296  0  0  -0.564  0  2.319137  0  0  -0.304875  -0.519769  0  2.337389  0
O  O31  1  0.66901663  0.37415737  0.27573947  1  0  -0.597846  0  2.072739  0  0  -0.53774  0  2.330268  0  0  -0.563947  0  2.319114  0  0  -0.304877  -0.519708  0  2.33736  0
O  O32  1  0.32588779  0.80291762  0.39759652  1  0  -0.831787  0  1.938466  0  0  -0.776361  0  2.144937  0  0  -0.798997  0  2.11244  0  0  -0.586189  -0.760288  0  2.167272  0
O  O33  1  0.67411375  0.19708309  0.60240393  1  0  -0.831888  0  1.938415  0  0  -0.776456  0  2.144861  0  0  -0.799092  0  2.112367  0  0  -0.586225  -0.760381  0  2.167197  0
O  O34  1  0.67484378  0.65080396  0.89652518  1  0  -0.637914  0  1.99633  0  0  -0.573907  0  2.219437  0  0  -0.599557  0  2.206975  0  0  -0.302547  -0.555957  0  2.227586  0
O  O35  1  0.32515634  0.34919675  0.10347542  1  0  -0.637882  0  1.996443  0  0  -0.57387  0  2.219548  0  0  -0.599496  0  2.207075  0  0  -0.302519  -0.555916  0  2.227687  0
O  O36  1  0.53753748  0.91319771  0.70305627  1  0  -0.597062  0  2.022114  0  0  -0.530153  0  2.23917  0  0  -0.556822  0  2.228397  0  0  -0.284578  -0.51149  0  2.24605  0
O  O37  1  0.46246264  0.08680301  0.29694310  1  0  -0.597027  0  2.022119  0  0  -0.530107  0  2.239167  0  0  -0.556778  0  2.228397  0  0  -0.284546  -0.511448  0  2.246053  0
