# generated using pymatgen
data_Zn2H7C13N2Cl7O9
_symmetry_space_group_name_H-M   'P 1'
_cell_length_a   8.00619415
_cell_length_b   7.49882554
_cell_length_c   11.26511056
_cell_angle_alpha   87.03216834
_cell_angle_beta   76.27998839
_cell_angle_gamma   71.50168803
_symmetry_Int_Tables_number   1
_chemical_formula_structural   Zn2H7C13N2Cl7O9
_chemical_formula_sum   'Zn2 H7 C13 N2 Cl7 O9'
_cell_volume   622.87715861
_cell_formula_units_Z   1
loop_
 _symmetry_equiv_pos_site_id
 _symmetry_equiv_pos_as_xyz
  1  'x, y, z'
loop_
 _atom_site_type_symbol
 _atom_site_label
 _atom_site_symmetry_multiplicity
 _atom_site_fract_x
 _atom_site_fract_y
 _atom_site_fract_z
 _atom_site_occupancy
 _atom_site_pbe_bader_charge
 _atom_site_pbe_bader_spin_density
 _atom_site_pbe_cm5_charge
 _atom_site_pbe_ddec_charge
 _atom_site_pbe_ddec_spin_density
 _atom_site_pbe_ddec_sum_bond_order
 _atom_site_pbe_magmom
Zn  Zn0  1  0.71022556  0.47368916  0.42994086  1  1.30589  0  0.691518  0.882015  0  2.261378  0
Zn  Zn1  1  0.32251367  0.52250675  0.50197505  1  1.317087  0  0.68937  0.87814  0  2.298939  0
H  H2  1  0.18204830  0.13754586  0.78235395  1  0.050642  0  0.080756  0.044926  0  1.033613  0
H  H3  1  0.11413654  0.94704908  0.74171636  1  0.069829  0  0.088184  0.067969  0  1.008315  0
H  H4  1  0.17610651  0.78816244  0.93462335  1  0.022804  0  0.075657  0.074113  0  1.037791  0
H  H5  1  0.23840008  0.97864667  0.97530683  1  0.023613  0  0.074876  0.070324  0  1.033119  0
H  H6  1  0.92213911  0.19597290  0.98927949  1  0.001674  0  0.069084  0.101165  0  1.044899  0
H  H7  1  0.91600706  0.99863885  0.08158288  1  0.020367  0  0.082538  0.119817  0  0.999074  0
H  H8  1  0.85930254  0.01202397  0.93803855  1  0.014473  0  0.069878  0.101242  0  1.035508  0
C  C9  1  0.41906358  0.84035069  0.52441721  1  1.588365  0  0.195442  0.551318  0  4.196007  0
C  C10  1  0.45294601  0.93476434  0.62825504  1  0.604456  0  0.071096  0.081915  0  3.969587  0
C  C11  1  0.19766264  0.98673011  0.79388617  1  0.338781  0  -0.077271  0.036208  0  3.835952  0
C  C12  1  0.14940652  0.94071701  0.92743223  1  0.045644  0  -0.180437  -0.128268  0  3.975432  0
C  C13  1  0.95111506  0.04273952  0.98695075  1  -0.028382  0  -0.253828  -0.350145  0  3.96615  0
C  C14  1  0.57491267  0.03032083  0.60871570  1  0.071197  0  -0.008674  -0.084043  0  3.940839  0
C  C15  1  0.52684306  0.51957622  0.24112425  1  1.654331  0  0.219608  0.617964  0  4.177896  0
C  C16  1  0.60308585  0.15276015  0.50059972  1  1.613018  0  0.199841  0.60015  0  4.191869  0
C  C17  1  0.51859535  0.48752529  0.69280997  1  1.595211  0  0.209097  0.589803  0  4.181621  0
C  C18  1  0.43518652  0.44400491  0.92458391  1  0.100295  0  0.012101  0.054926  0  4.039381  0
C  C19  1  0.54981366  0.47071834  0.81990951  1  0.210353  0  0.005331  -0.053717  0  3.947592  0
C  C20  1  0.47380006  0.42325563  0.04657982  1  0.104808  0  -0.005621  0.022249  0  4.070973  0
C  C21  1  0.51245963  0.54723266  0.10979427  1  0.193535  0  0.006592  -0.041997  0  3.967858  0
N  N22  1  0.07695495  0.46210583  0.49139256  1  -0.174264  0  -0.090552  0.005145  0  3.312356  0
N  N23  1  0.95512365  0.54869487  0.43780103  1  -0.188116  0  -0.085755  0.006694  0  3.299452  0
Cl  Cl24  1  0.22583362  0.42359059  0.92573312  1  -0.145297  0  0.044565  0.013133  0  1.64672  0
Cl  Cl25  1  0.76107937  0.47508384  0.82649806  1  -0.164562  0  0.017757  -0.019628  0  1.744013  0
Cl  Cl26  1  0.45476013  0.21817421  0.11979639  1  -0.161615  0  0.014637  -0.022514  0  1.599987  0
Cl  Cl27  1  0.53547936  0.75706784  0.05544671  1  -0.136079  0  0.047025  0.018738  0  1.715672  0
Cl  Cl28  1  0.68161241  0.04440219  0.72208423  1  -0.175615  0  0.015405  -0.017082  0  1.699895  0
Cl  Cl29  1  0.07019608  0.24356079  0.53208070  1  0.246323  0  0.233342  0.179071  0  1.695711  0
Cl  Cl30  1  0.95604844  0.77021426  0.40119008  1  0.247101  0  0.233076  0.191453  0  1.593592  0
O  O31  1  0.54932678  0.78234772  0.43210492  1  -1.171942  0  -0.327318  -0.558144  0  2.279231  0
O  O32  1  0.27077226  0.79851859  0.54610715  1  -1.14855  0  -0.329875  -0.554543  0  2.330984  0
O  O33  1  0.68509135  0.47233348  0.26076737  1  -1.125205  0  -0.303914  -0.497789  0  2.294755  0
O  O34  1  0.37656706  0.55440432  0.31785760  1  -1.151778  0  -0.305556  -0.547664  0  2.427491  0
O  O35  1  0.75397188  0.18594796  0.46635754  1  -1.151873  0  -0.329343  -0.569996  0  2.347503  0
O  O36  1  0.46378290  0.23598272  0.45938481  1  -1.16724  0  -0.331445  -0.575561  0  2.355782  0
O  O37  1  0.64639715  0.51787186  0.61073759  1  -1.15635  0  -0.320175  -0.56697  0  2.492  0
O  O38  1  0.37590394  0.46663655  0.67337656  1  -1.135122  0  -0.301939  -0.515283  0  2.348113  0
O  O39  1  0.38831647  0.88062802  0.74296508  1  -1.057807  0  -0.195072  -0.205136  0  2.557469  0
