# generated using pymatgen
data_FeH8PtC14(N3F)2
_symmetry_space_group_name_H-M   'P 1'
_cell_length_a   7.00110523
_cell_length_b   7.17070240
_cell_length_c   8.38660630
_cell_angle_alpha   115.24278994
_cell_angle_beta   97.07355730
_cell_angle_gamma   89.99615027
_symmetry_Int_Tables_number   1
_chemical_formula_structural   FeH8PtC14(N3F)2
_chemical_formula_sum   'Fe1 H8 Pt1 C14 N6 F2'
_cell_volume   377.28247788
_cell_formula_units_Z   1
loop_
 _symmetry_equiv_pos_site_id
 _symmetry_equiv_pos_as_xyz
  1  'x, y, z'
loop_
 _atom_site_type_symbol
 _atom_site_label
 _atom_site_symmetry_multiplicity
 _atom_site_fract_x
 _atom_site_fract_y
 _atom_site_fract_z
 _atom_site_occupancy
 _atom_site_pbe_bader_spin_density
 _atom_site_pbe_cm5_charge
 _atom_site_pbe_ddec_charge
 _atom_site_pbe_ddec_spin_density
 _atom_site_pbe_ddec_sum_bond_order
 _atom_site_pbe_magmom
Fe  Fe0  1  0.99999948  0.99999924  0.99999907  1  0  0.904217  0.574373  0  3.991751  0
H  H1  1  0.69561385  0.11647010  0.23360038  1  0  0.130478  0.126852  0  0.988165  0
H  H2  1  0.30438529  0.88353150  0.76640025  1  0  0.130465  0.126832  0  0.988202  0
H  H3  1  0.98564913  0.38649114  0.77304097  1  0  0.118889  0.149975  0  0.978408  0
H  H4  1  0.01435433  0.61351046  0.22696011  1  0  0.118908  0.150031  0  0.978447  0
H  H5  1  0.30139899  0.32285569  0.64586384  1  0  0.09293  0.088008  0  1.0741  0
H  H6  1  0.69860430  0.67714283  0.35413490  1  0  0.092928  0.088017  0  1.074144  0
H  H7  1  0.29548969  0.15774324  0.31581891  1  0  0.122118  0.1003  0  1.001666  0
H  H8  1  0.70451200  0.84225219  0.68417854  1  0  0.122132  0.100294  0  1.001699  0
Pt  Pt9  1  0.49999801  0.49999834  0.00000276  1  0  0.539022  0.123446  0  4.757523  0
C  C10  1  0.82790704  0.16323175  0.32698849  1  0  0.037803  -0.052404  0  3.911792  0
C  C11  1  0.17209498  0.83676986  0.67301125  1  0  0.037831  -0.052386  0  3.911824  0
C  C12  1  0.82357134  0.25431788  0.50913539  1  0  0.103182  0.251341  0  4.071877  0
C  C13  1  0.17642933  0.74568527  0.49086597  1  0  0.1032  0.251413  0  4.071853  0
C  C14  1  0.99080461  0.31505115  0.63034838  1  0  -0.075419  -0.147098  0  3.920181  0
C  C15  1  0.00919732  0.68494891  0.36965078  1  0  -0.075419  -0.147132  0  3.920346  0
C  C16  1  0.16403500  0.27924088  0.55861866  1  0  -0.08186  -0.098213  0  3.99828  0
C  C17  1  0.83596677  0.72075610  0.44137817  1  0  -0.081874  -0.098251  0  3.998445  0
C  C18  1  0.16268213  0.18746271  0.37518057  1  0  0.041924  0.056985  0  3.902998  0
C  C19  1  0.83731532  0.81253426  0.62481701  1  0  0.041889  0.056985  0  3.902976  0
C  C20  1  0.69391165  0.29512104  0.98173541  1  0  -0.004213  0.023763  0  3.926236  0
C  C21  1  0.30546756  0.31387278  0.01819185  1  0  -0.003471  0.024574  0  3.926878  0
C  C22  1  0.30607504  0.70488981  0.01826973  1  0  -0.004084  0.023936  0  3.926635  0
C  C23  1  0.69453311  0.68613036  0.98181189  1  0  -0.00345  0.024474  0  3.926946  0
N  N24  1  0.99704200  0.13015603  0.26059276  1  0  -0.322253  -0.117065  0  3.626207  0
N  N25  1  0.00295858  0.86984557  0.73940802  1  0  -0.322255  -0.117084  0  3.626163  0
N  N26  1  0.80947099  0.17601818  0.97880850  1  0  -0.394198  -0.304389  0  3.647694  0
N  N27  1  0.18991127  0.19760665  0.02097652  1  0  -0.394607  -0.304837  0  3.648856  0
N  N28  1  0.19053603  0.82396952  0.02119143  1  0  -0.394291  -0.304492  0  3.648308  0
N  N29  1  0.81008178  0.80238876  0.97902481  1  0  -0.394551  -0.304646  0  3.648851  0
F  F30  1  0.64762151  0.28283039  0.56658466  1  0  -0.092969  -0.14677  0  1.379595  0
F  F31  1  0.35238042  0.71716967  0.43341451  1  0  -0.093001  -0.146833  0  1.379548  0
