# generated using pymatgen
data_K2H2C6Cl2O5
_symmetry_space_group_name_H-M   'P 1'
_cell_length_a   4.72200776
_cell_length_b   8.48353730
_cell_length_c   12.70506731
_cell_angle_alpha   79.83888204
_cell_angle_beta   79.30472761
_cell_angle_gamma   73.70734516
_symmetry_Int_Tables_number   1
_chemical_formula_structural   K2H2C6Cl2O5
_chemical_formula_sum   'K4 H4 C12 Cl4 O10'
_cell_volume   475.84044120
_cell_formula_units_Z   2
loop_
 _symmetry_equiv_pos_site_id
 _symmetry_equiv_pos_as_xyz
  1  'x, y, z'
loop_
 _atom_site_type_symbol
 _atom_site_label
 _atom_site_symmetry_multiplicity
 _atom_site_fract_x
 _atom_site_fract_y
 _atom_site_fract_z
 _atom_site_occupancy
 _atom_site_hle17_bader_spin_density
 _atom_site_hle17_ddec_charge
 _atom_site_hle17_ddec_spin_density
 _atom_site_hle17_ddec_sum_bond_order
 _atom_site_hle17_magmom
 _atom_site_hse06_10hf_bader_spin_density
 _atom_site_hse06_10hf_ddec_charge
 _atom_site_hse06_10hf_ddec_spin_density
 _atom_site_hse06_10hf_ddec_sum_bond_order
 _atom_site_hse06_10hf_magmom
 _atom_site_hse06_bader_spin_density
 _atom_site_hse06_ddec_charge
 _atom_site_hse06_ddec_spin_density
 _atom_site_hse06_ddec_sum_bond_order
 _atom_site_hse06_magmom
 _atom_site_pbe_bader_spin_density
 _atom_site_pbe_cm5_charge
 _atom_site_pbe_ddec_charge
 _atom_site_pbe_ddec_spin_density
 _atom_site_pbe_ddec_sum_bond_order
 _atom_site_pbe_magmom
K  K0  1  0.73111744  0.99656772  0.12799310  1  0  0.915895  0  0.472574  0  0  0.857262  0  0.664709  0  0  0.872709  0  0.642556  0  0  0.714596  0.845686  0  0.680621  0
K  K1  1  0.85458584  0.50334365  0.37214694  1  0  0.915132  0  0.473857  0  0  0.856525  0  0.666023  0  0  0.87202  0  0.643885  0  0  0.715218  0.844925  0  0.681917  0
K  K2  1  0.26888489  0.00343206  0.87201055  1  0  0.915903  0  0.47258  0  0  0.857263  0  0.664713  0  0  0.872709  0  0.64256  0  0  0.714583  0.845678  0  0.680625  0
K  K3  1  0.14542193  0.49665735  0.62785283  1  0  0.915132  0  0.473848  0  0  0.856532  0  0.666011  0  0  0.872026  0  0.643872  0  0  0.715218  0.844922  0  0.681903  0
H  H4  1  0.29772838  0.78184211  0.30620240  1  0  0.412035  0  0.895653  0  0  0.382138  0  0.959738  0  0  0.39313  0  0.943398  0  0  0.284653  0.374358  0  0.971281  0
H  H5  1  0.38564647  0.71859899  0.19353089  1  0  0.413086  0  0.894376  0  0  0.382893  0  0.958839  0  0  0.393899  0  0.942495  0  0  0.284781  0.37511  0  0.970373  0
H  H6  1  0.70226835  0.21815767  0.69379828  1  0  0.412046  0  0.895634  0  0  0.382155  0  0.95971  0  0  0.393147  0  0.94337  0  0  0.284667  0.374374  0  0.971254  0
H  H7  1  0.61435282  0.28139954  0.80647005  1  0  0.41313  0  0.894304  0  0  0.382952  0  0.958742  0  0  0.393956  0  0.9424  0  0  0.284818  0.375166  0  0.970282  0
C  C8  1  0.11429507  0.32294573  0.03476380  1  0  0.306305  0  3.871378  0  0  0.284238  0  4.149441  0  0  0.305904  0  4.154839  0  0  0.103823  0.269767  0  4.145332  0
C  C9  1  0.47282757  0.17693476  0.46572999  1  0  0.298448  0  3.876368  0  0  0.279433  0  4.150933  0  0  0.300642  0  4.156883  0  0  0.101376  0.265062  0  4.146757  0
C  C10  1  0.88571160  0.67705155  0.96523693  1  0  0.306198  0  3.871456  0  0  0.284115  0  4.149579  0  0  0.305777  0  4.154984  0  0  0.103723  0.269644  0  4.145468  0
C  C11  1  0.52717123  0.82306748  0.53426733  1  0  0.298479  0  3.87617  0  0  0.279406  0  4.150788  0  0  0.300635  0  4.156717  0  0  0.101383  0.265036  0  4.146604  0
C  C12  1  0.90205474  0.38724094  0.94872156  1  0  0.293908  0  3.861032  0  0  0.271868  0  4.133722  0  0  0.292535  0  4.14091  0  0  0.105311  0.258032  0  4.128472  0
C  C13  1  0.23801087  0.11327850  0.55135045  1  0  0.295622  0  3.8608  0  0  0.271854  0  4.135256  0  0  0.292865  0  4.142127  0  0  0.105219  0.25794  0  4.130084  0
C  C14  1  0.09794449  0.61275512  0.05127866  1  0  0.293894  0  3.861004  0  0  0.271842  0  4.133723  0  0  0.292511  0  4.140913  0  0  0.105319  0.258002  0  4.128482  0
C  C15  1  0.76198192  0.88672374  0.44864641  1  0  0.295592  0  3.860697  0  0  0.271909  0  4.135062  0  0  0.292899  0  4.141951  0  0  0.105291  0.257998  0  4.129889  0
C  C16  1  0.80846350  0.55909620  0.91827887  1  0  -0.177953  0  3.796508  0  0  -0.181485  0  4.091638  0  0  -0.199258  0  4.116965  0  0  -0.048387  -0.169842  0  4.074561  0
C  C17  1  0.28512894  0.94146077  0.58136202  1  0  -0.177519  0  3.799427  0  0  -0.182105  0  4.094989  0  0  -0.199839  0  4.120366  0  0  -0.04955  -0.170457  0  4.077893  0
C  C18  1  0.19153940  0.44090233  0.08172065  1  0  -0.177939  0  3.796535  0  0  -0.181456  0  4.091633  0  0  -0.199229  0  4.116959  0  0  -0.048375  -0.169813  0  4.074568  0
C  C19  1  0.71486449  0.05854271  0.41863567  1  0  -0.177524  0  3.79961  0  0  -0.182112  0  4.095056  0  0  -0.199837  0  4.120444  0  0  -0.049552  -0.170471  0  4.077974  0
Cl  Cl20  1  0.57657153  0.62863213  0.81906944  1  0  -0.116349  0  1.588566  0  0  -0.096339  0  1.867785  0  0  -0.098106  0  1.865873  0  0  -0.003046  -0.09504  0  1.869412  0
Cl  Cl21  1  0.02295604  0.87247622  0.68018485  1  0  -0.115422  0  1.590629  0  0  -0.094963  0  1.869788  0  0  -0.096795  0  1.867928  0  0  -0.001391  -0.093602  0  1.871359  0
Cl  Cl22  1  0.42342913  0.37136516  0.18093082  1  0  -0.116348  0  1.588584  0  0  -0.096339  0  1.867794  0  0  -0.098106  0  1.865884  0  0  -0.003039  -0.095042  0  1.869427  0
Cl  Cl23  1  0.97704236  0.12752603  0.31981498  1  0  -0.115396  0  1.59063  0  0  -0.094955  0  1.869809  0  0  -0.096787  0  1.867949  0  0  -0.001392  -0.093594  0  1.871391  0
O  O24  1  0.20514792  0.16770670  0.05708767  1  0  -0.615826  0  2.034828  0  0  -0.573899  0  2.272975  0  0  -0.59327  0  2.26733  0  0  -0.444117  -0.560233  0  2.276518  0
O  O25  1  0.43139239  0.33206026  0.44371052  1  0  -0.611732  0  2.036438  0  0  -0.570641  0  2.273199  0  0  -0.589972  0  2.267984  0  0  -0.443207  -0.556947  0  2.276561  0
O  O26  1  0.79485388  0.83228811  0.94291281  1  0  -0.61582  0  2.034974  0  0  -0.573862  0  2.273128  0  0  -0.593236  0  2.267488  0  0  -0.444056  -0.560195  0  2.276662  0
O  O27  1  0.56860824  0.66794322  0.55628857  1  0  -0.611716  0  2.03631  0  0  -0.570618  0  2.273126  0  0  -0.589949  0  2.267887  0  0  -0.443217  -0.556926  0  2.276489  0
O  O28  1  0.82697687  0.27887425  0.91114288  1  0  -0.563007  0  2.037989  0  0  -0.510953  0  2.259485  0  0  -0.531854  0  2.254798  0  0  -0.358504  -0.496322  0  2.262398  0
O  O29  1  0.01707211  0.22202659  0.58902159  1  0  -0.561991  0  2.036394  0  0  -0.509536  0  2.258195  0  0  -0.53051  0  2.253374  0  0  -0.35804  -0.494828  0  2.26102  0
O  O30  1  0.17301795  0.72112182  0.08885954  1  0  -0.562954  0  2.037946  0  0  -0.510874  0  2.259455  0  0  -0.531777  0  2.25477  0  0  -0.35847  -0.496242  0  2.262367  0
O  O31  1  0.98292268  0.77797564  0.41097543  1  0  -0.562  0  2.036255  0  0  -0.509537  0  2.257981  0  0  -0.530505  0  2.253168  0  0  -0.358087  -0.49485  0  2.260844  0
O  O32  1  0.47127662  0.75043556  0.24976012  1  0  -0.910629  0  1.763001  0  0  -0.866326  0  1.923436  0  0  -0.884139  0  1.89248  0  0  -0.708747  -0.853619  0  1.945118  0
O  O33  1  0.52872412  0.24956421  0.75024087  1  0  -0.91068  0  1.762949  0  0  -0.866385  0  1.923374  0  0  -0.884196  0  1.892417  0  0  -0.708804  -0.853677  0  1.945057  0
