# generated using pymatgen
data_Ba2NiH14(C3O8)2
_symmetry_space_group_name_H-M   'P 1'
_cell_length_a   6.89160894
_cell_length_b   7.17652379
_cell_length_c   8.85233786
_cell_angle_alpha   82.15469948
_cell_angle_beta   71.17688334
_cell_angle_gamma   80.24439532
_symmetry_Int_Tables_number   1
_chemical_formula_structural   Ba2NiH14(C3O8)2
_chemical_formula_sum   'Ba2 Ni1 H14 C6 O16'
_cell_volume   406.83548875
_cell_formula_units_Z   1
loop_
 _symmetry_equiv_pos_site_id
 _symmetry_equiv_pos_as_xyz
  1  'x, y, z'
loop_
 _atom_site_type_symbol
 _atom_site_label
 _atom_site_symmetry_multiplicity
 _atom_site_fract_x
 _atom_site_fract_y
 _atom_site_fract_z
 _atom_site_occupancy
 _atom_site_hle17_ddec_charge
 _atom_site_hle17_ddec_spin_density
 _atom_site_hle17_ddec_sum_bond_order
 _atom_site_hle17_magmom
 _atom_site_hse06_10hf_ddec_charge
 _atom_site_hse06_10hf_ddec_spin_density
 _atom_site_hse06_10hf_ddec_sum_bond_order
 _atom_site_hse06_10hf_magmom
 _atom_site_hse06_ddec_charge
 _atom_site_hse06_ddec_spin_density
 _atom_site_hse06_ddec_sum_bond_order
 _atom_site_hse06_magmom
 _atom_site_pbe_cm5_charge
 _atom_site_pbe_ddec_charge
 _atom_site_pbe_ddec_spin_density
 _atom_site_pbe_ddec_sum_bond_order
 _atom_site_pbe_magmom
Ba  Ba0  1  0.09405548  0.73397600  0.35498319  1  1.653501  -0.000302  1.141108  0.0  1.506286  -5.7e-05  1.538116  0.0  1.547743  -3.9e-05  1.493669  0.0  0.915403  1.475876  -0.000112  1.56948  0.0
Ba  Ba1  1  0.90594390  0.26602532  0.64501831  1  1.653498  -0.000303  1.141125  0.0  1.506298  -6.3e-05  1.538111  0.0  1.547755  -3.3e-05  1.493664  0.0  0.915417  1.475891  -0.000112  1.569477  0.0
Ni  Ni2  1  0.99999887  0.99999961  0.00000083  1  0.881128  0.026158  2.001601  0.023  0.914757  -0.000328  2.380662  -0.001  1.019296  -0.000662  2.294314  -0.001  0.608383  0.836563  0.000338  2.448044  0.0
H  H3  1  0.59547801  0.89093585  0.06565786  1  0.004285  0.000138  0.942641  0.0  0.010258  0.000378  1.020114  0.0  0.010073  0.00025  1.015608  0.0  0.115117  0.010171  0.000479  1.023497  0.0
H  H4  1  0.40451982  0.10906548  0.93434290  1  0.004288  0.000138  0.942657  0.0  0.010259  0.000378  1.02013  0.0  0.010074  0.00025  1.015624  0.0  0.115119  0.010172  0.000479  1.023513  0.0
H  H5  1  0.01385892  0.36901024  0.09184251  1  0.007706  -0.000429  0.929057  -0.001  0.016702  -0.000318  0.999982  0.0  0.016988  -0.000187  0.994845  0.0  0.116703  0.016155  -0.000421  1.00398  0.0
H  H6  1  0.98614219  0.63098966  0.90815758  1  0.007708  -0.000429  0.929036  -0.001  0.016702  -0.000318  0.999961  0.0  0.016989  -0.000187  0.994825  0.0  0.116701  0.016156  -0.000421  1.003959  0.0
H  H7  1  0.47455879  0.38051255  0.11104722  1  0.003199  0.005051  0.925694  0.005  0.010751  0.000829  1.001238  0.001  0.010705  0.00058  0.995971  0.0  0.116631  0.01069  0.001084  1.005224  0.001
H  H8  1  0.52543925  0.61948737  0.88895251  1  0.003187  0.005052  0.925676  0.005  0.01074  0.000829  1.001215  0.001  0.010695  0.00058  0.995945  0.0  0.116614  0.010679  0.001084  1.005202  0.001
H  H9  1  0.34784907  0.05319472  0.42224240  1  0.423558  -3.9e-05  0.870749  0.0  0.394847  -2.7e-05  0.933406  0.0  0.404463  -1.9e-05  0.919213  0.0  0.312815  0.387988  -3.4e-05  0.943548  0.0
H  H10  1  0.65214990  0.94680944  0.57775777  1  0.423563  -3.9e-05  0.870763  0.0  0.39485  -2.7e-05  0.933408  0.0  0.404467  -1.8e-05  0.919214  0.0  0.312813  0.387991  -3.4e-05  0.94355  0.0
H  H11  1  0.30109317  0.92784758  0.58986634  1  0.434938  7.5e-05  0.862534  0.0  0.401873  2e-05  0.928989  0.0  0.412646  1.6e-05  0.913272  0.0  0.307204  0.394246  2.5e-05  0.940113  0.0
H  H12  1  0.69890774  0.07215373  0.41013365  1  0.434943  7.5e-05  0.862528  0.0  0.401875  2e-05  0.92899  0.0  0.412649  1.6e-05  0.913271  0.0  0.307202  0.394246  2.5e-05  0.940116  0.0
H  H13  1  0.39020338  0.34740842  0.42045568  1  0.409774  -2.2e-05  0.900593  0.0  0.379606  -2e-06  0.964525  0.0  0.390506  -1e-06  0.948431  0.0  0.299081  0.371878  -2e-06  0.975935  0.0
H  H14  1  0.60979712  0.65259574  0.57954411  1  0.409747  -2.2e-05  0.900626  0.0  0.379571  -2e-06  0.964572  0.0  0.390472  -1e-06  0.948477  0.0  0.299063  0.371843  -2e-06  0.975983  0.0
H  H15  1  0.35529361  0.40244130  0.59470217  1  0.425355  -9e-06  0.876589  0.0  0.396268  2.6e-05  0.937432  0.0  0.408034  1.9e-05  0.92013  0.0  0.301187  0.387903  3.4e-05  0.949726  0.0
H  H16  1  0.64470616  0.59755719  0.40529841  1  0.425337  -1e-05  0.87661  0.0  0.396244  2.6e-05  0.937459  0.0  0.408008  1.9e-05  0.92016  0.0  0.301175  0.387878  3.4e-05  0.949754  0.0
C  C17  1  0.65177235  0.79775200  0.15769691  1  0.591845  -0.000568  3.890621  -0.001  0.522423  0.000358  4.206327  -0.001  0.558722  5.3e-05  4.198962  -0.001  0.159826  0.497059  0.000573  4.210745  -0.001
C  C18  1  0.34822609  0.20224508  0.84230076  1  0.591837  -0.000568  3.89078  -0.001  0.522431  0.000358  4.206457  -0.001  0.55873  5.2e-05  4.199095  -0.001  0.159834  0.497066  0.000573  4.210875  -0.001
C  C19  1  0.05116160  0.27526613  0.19195146  1  0.603573  0.003094  3.88107  0.004  0.537567  -0.000416  4.187242  0.001  0.573698  -4.9e-05  4.179728  0.001  0.167054  0.512411  -0.000686  4.191644  0.001
C  C20  1  0.94883758  0.72473661  0.80804994  1  0.603582  0.003094  3.881113  0.004  0.537579  -0.000415  4.187284  0.001  0.573708  -5e-05  4.179774  0.001  0.167061  0.512427  -0.000686  4.191685  0.001
C  C21  1  0.59319123  0.26467983  0.13426808  1  0.599129  -0.002848  3.880626  -0.004  0.526696  0.000153  4.203672  0.0  0.562411  1.6e-05  4.194985  0.0  0.163241  0.501868  0.000276  4.20892  0.0
C  C22  1  0.40680834  0.73532008  0.86573240  1  0.599229  -0.002848  3.880768  -0.004  0.5268  0.000153  4.203797  0.0  0.562515  1.6e-05  4.195111  0.0  0.163302  0.501972  0.000276  4.209047  0.0
O  O23  1  0.83354086  0.81206040  0.15963931  1  -0.627881  0.011668  2.204674  0.012  -0.591943  0.039195  2.497327  0.042  -0.634707  0.031704  2.489295  0.035  -0.349697  -0.560654  0.044967  2.5021  0.048
O  O24  1  0.16645604  0.18793669  0.84035875  1  -0.627881  0.011669  2.204799  0.012  -0.591957  0.039197  2.497457  0.042  -0.634724  0.031706  2.489426  0.035  -0.349703  -0.560669  0.044968  2.50224  0.048
O  O25  1  0.53590772  0.68545974  0.25129421  1  -0.627278  0.001383  2.042293  0.001  -0.564319  0.003376  2.280052  0.004  -0.590805  0.002046  2.270326  0.002  -0.333969  -0.545805  0.004761  2.286479  0.005
O  O26  1  0.46409266  0.31453451  0.74870103  1  -0.627273  0.001383  2.042368  0.001  -0.564318  0.003376  2.280122  0.004  -0.590807  0.002046  2.270397  0.002  -0.333984  -0.545804  0.004761  2.28655  0.005
O  O27  1  0.07294562  0.35015228  0.30463746  1  -0.65797  -0.007053  2.03829  -0.007  -0.587975  -0.004301  2.284079  -0.005  -0.615654  -0.002576  2.276155  -0.003  -0.361211  -0.568384  -0.006178  2.288965  -0.006
O  O28  1  0.92705396  0.64984762  0.69536527  1  -0.658027  -0.007053  2.038242  -0.007  -0.588046  -0.004301  2.284046  -0.005  -0.615727  -0.002575  2.276127  -0.003  -0.361287  -0.568452  -0.006178  2.288932  -0.006
O  O29  1  0.07023265  0.09599671  0.18215005  1  -0.634075  -0.078195  2.157733  -0.082  -0.588613  -0.048514  2.436922  -0.053  -0.631549  -0.038998  2.429873  -0.043  -0.341044  -0.557117  -0.05622  2.440916  -0.06
O  O30  1  0.92976673  0.90400461  0.81785032  1  -0.634032  -0.078195  2.157862  -0.082  -0.588556  -0.048513  2.437033  -0.053  -0.631497  -0.038999  2.429997  -0.043  -0.340978  -0.557059  -0.056217  2.441027  -0.06
O  O31  1  0.74290189  0.21708275  0.01203726  1  -0.618117  0.054479  2.129299  0.059  -0.585804  0.009313  2.418704  0.01  -0.623854  0.007508  2.408762  0.008  -0.314941  -0.557957  0.010955  2.425068  0.012
O  O32  1  0.25709748  0.78291857  0.98796198  1  -0.618154  0.05448  2.129311  0.059  -0.585828  0.009313  2.418683  0.01  -0.623879  0.007509  2.40874  0.008  -0.314947  -0.557979  0.010955  2.425048  0.012
O  O33  1  0.56426595  0.19500460  0.27857439  1  -0.621606  0.000479  2.05895  0.001  -0.548049  9.5e-05  2.27922  0.0  -0.573931  -2.4e-05  2.268496  0.0  -0.296867  -0.529984  0.000229  2.286284  0.0
O  O34  1  0.43573076  0.80499389  0.72142921  1  -0.621684  0.000479  2.059165  0.001  -0.548127  9.5e-05  2.279423  0.0  -0.573993  -2.4e-05  2.268665  0.0  -0.296912  -0.53006  0.000229  2.28649  0.0
O  O35  1  0.24273957  0.98418254  0.50224879  1  -0.892909  5e-06  1.850872  0.0  -0.834442  -0.000132  2.041651  0.0  -0.854636  -9e-05  2.010981  0.0  -0.631459  -0.820136  -0.000168  2.063164  0.0
O  O36  1  0.75726307  0.01581736  0.49775092  1  -0.892917  5e-06  1.850876  0.0  -0.834445  -0.000132  2.04164  0.0  -0.854639  -9e-05  2.010969  0.0  -0.631459  -0.820138  -0.000168  2.063154  0.0
O  O37  1  0.29040864  0.42043092  0.50722630  1  -0.917574  1.4e-05  1.903853  0.0  -0.859516  0.000188  2.091403  0.0  -0.880505  0.000118  2.059029  0.0  -0.649256  -0.844501  0.000268  2.113952  0.0
O  O38  1  0.70959073  0.57957040  0.49277407  1  -0.917527  1.3e-05  1.903884  0.0  -0.859445  0.000188  2.091432  0.0  -0.880444  0.000119  2.059075  0.0  -0.649234  -0.844431  0.000268  2.113981  0.0
