# generated using pymatgen
data_Cu2H5C5NCl2
_symmetry_space_group_name_H-M   'P 1'
_cell_length_a   6.53405561
_cell_length_b   6.99900479
_cell_length_c   8.72729164
_cell_angle_alpha   80.66907245
_cell_angle_beta   83.36139723
_cell_angle_gamma   75.36878937
_symmetry_Int_Tables_number   1
_chemical_formula_structural   Cu2H5C5NCl2
_chemical_formula_sum   'Cu4 H10 C10 N2 Cl4'
_cell_volume   379.89660399
_cell_formula_units_Z   2
loop_
 _symmetry_equiv_pos_site_id
 _symmetry_equiv_pos_as_xyz
  1  'x, y, z'
loop_
 _atom_site_type_symbol
 _atom_site_label
 _atom_site_symmetry_multiplicity
 _atom_site_fract_x
 _atom_site_fract_y
 _atom_site_fract_z
 _atom_site_occupancy
 _atom_site_pbe_bader_spin_density
 _atom_site_pbe_cm5_charge
 _atom_site_pbe_ddec_charge
 _atom_site_pbe_ddec_spin_density
 _atom_site_pbe_ddec_sum_bond_order
 _atom_site_pbe_magmom
Cu  Cu0  1  0.99705007  0.27884759  0.92768405  1  0  0.41314  0.502325  0  2.463525  0
Cu  Cu1  1  0.00294893  0.72116411  0.07229867  1  0  0.41319  0.502397  0  2.463564  0
Cu  Cu2  1  0.41684845  0.40844545  0.17576815  1  0  0.412087  0.46568  0  2.527621  0
Cu  Cu3  1  0.58314755  0.59152416  0.82424406  1  0  0.41203  0.465613  0  2.527629  0
H  H4  1  0.37733613  0.10947617  0.83599186  1  0  0.086237  0.156121  0  1.032933  0
H  H5  1  0.62266580  0.89051752  0.16401121  1  0  0.086233  0.156139  0  1.032796  0
H  H6  1  0.27850358  0.35069350  0.71282250  1  0  0.091028  0.146083  0  1.02875  0
H  H7  1  0.72151865  0.64928858  0.28717133  1  0  0.090962  0.145947  0  1.02881  0
H  H8  1  0.08185570  0.98044776  0.77626785  1  0  0.088716  0.108549  0  1.044074  0
H  H9  1  0.91816519  0.01954476  0.22372707  1  0  0.08875  0.108573  0  1.044031  0
H  H10  1  0.94894645  0.38669937  0.56324784  1  0  0.102513  0.099931  0  1.012381  0
H  H11  1  0.05106343  0.61329892  0.43675636  1  0  0.102518  0.099899  0  1.012357  0
H  H12  1  0.76638227  0.01142738  0.63739991  1  0  0.108964  0.14513  0  1.000211  0
H  H13  1  0.23360093  0.98858996  0.36260162  1  0  0.109009  0.145168  0  1.000262  0
C  C14  1  0.25001370  0.20845986  0.77093615  1  0  -0.238857  -0.354006  0  3.905909  0
C  C15  1  0.75000708  0.79153864  0.22905919  1  0  -0.238748  -0.353832  0  3.905915  0
C  C16  1  0.08626327  0.13487409  0.73219844  1  0  -0.153055  -0.092913  0  4.105422  0
C  C17  1  0.91375310  0.86511238  0.26779757  1  0  -0.153186  -0.093142  0  4.105871  0
C  C18  1  0.93668179  0.23858962  0.61959269  1  0  -0.072747  -0.023784  0  3.979476  0
C  C19  1  0.06332514  0.76140866  0.38040600  1  0  -0.072748  -0.023657  0  3.979463  0
C  C20  1  0.78349558  0.15838605  0.58059129  1  0  -0.087348  -0.179003  0  4.030393  0
C  C21  1  0.21649572  0.84162392  0.41941284  1  0  -0.087386  -0.179064  0  4.030355  0
C  C22  1  0.64640916  0.25503078  0.46529054  1  0  0.195908  0.34699  0  4.004946  0
C  C23  1  0.35357250  0.74499094  0.53472660  1  0  0.196082  0.347099  0  4.004827  0
N  N24  1  0.53453690  0.33165611  0.36545958  1  0  -0.407816  -0.423255  0  3.467637  0
N  N25  1  0.46542810  0.66836982  0.63456287  1  0  -0.407937  -0.423315  0  3.467662  0
Cl  Cl26  1  0.09746484  0.32109781  0.15919278  1  0  -0.278247  -0.466847  0  1.808049  0
Cl  Cl27  1  0.90253229  0.67890936  0.84079179  1  0  -0.278256  -0.466861  0  1.80804  0
Cl  Cl28  1  0.64949375  0.26257014  0.97143111  1  0  -0.260484  -0.430942  0  1.952951  0
Cl  Cl29  1  0.35051197  0.73741458  0.02858080  1  0  -0.260553  -0.431023  0  1.952847  0
