# generated using pymatgen
data_SrH5C7NO5
_symmetry_space_group_name_H-M   'P 1'
_cell_length_a   6.58500404
_cell_length_b   6.70342811
_cell_length_c   10.04933430
_cell_angle_alpha   96.15737227
_cell_angle_beta   93.34414898
_cell_angle_gamma   116.99529943
_symmetry_Int_Tables_number   1
_chemical_formula_structural   SrH5C7NO5
_chemical_formula_sum   'Sr2 H10 C14 N2 O10'
_cell_volume   390.10755311
_cell_formula_units_Z   2
loop_
 _symmetry_equiv_pos_site_id
 _symmetry_equiv_pos_as_xyz
  1  'x, y, z'
loop_
 _atom_site_type_symbol
 _atom_site_label
 _atom_site_symmetry_multiplicity
 _atom_site_fract_x
 _atom_site_fract_y
 _atom_site_fract_z
 _atom_site_occupancy
 _atom_site_hle17_bader_spin_density
 _atom_site_hle17_ddec_charge
 _atom_site_hle17_ddec_spin_density
 _atom_site_hle17_ddec_sum_bond_order
 _atom_site_hle17_magmom
 _atom_site_hse06_10hf_bader_spin_density
 _atom_site_hse06_10hf_ddec_charge
 _atom_site_hse06_10hf_ddec_spin_density
 _atom_site_hse06_10hf_ddec_sum_bond_order
 _atom_site_hse06_10hf_magmom
 _atom_site_hse06_bader_spin_density
 _atom_site_hse06_ddec_charge
 _atom_site_hse06_ddec_spin_density
 _atom_site_hse06_ddec_sum_bond_order
 _atom_site_hse06_magmom
 _atom_site_pbe_bader_spin_density
 _atom_site_pbe_cm5_charge
 _atom_site_pbe_ddec_charge
 _atom_site_pbe_ddec_spin_density
 _atom_site_pbe_ddec_sum_bond_order
 _atom_site_pbe_magmom
Sr  Sr0  1  0.29416819  0.11235869  0.38644764  1  0  1.603473  0  1.077912  0  0  1.452816  0  1.449188  0  0  1.492046  0  1.40436  0  0  0.945397  1.423883  0  1.481205  0
Sr  Sr1  1  0.70583624  0.88763880  0.61355209  1  0  1.603526  0  1.077871  0  0  1.452818  0  1.449237  0  0  1.492048  0  1.404413  0  0  0.945423  1.423882  0  1.481254  0
H  H2  1  0.32270334  0.38412857  0.06479286  1  0  0.105462  0  0.974758  0  0  0.114573  0  1.038074  0  0  0.118042  0  1.03634  0  0  0.112039  0.11195  0  1.039682  0
H  H3  1  0.67728835  0.61587086  0.93520854  1  0  0.105439  0  0.974828  0  0  0.114578  0  1.038098  0  0  0.118047  0  1.036363  0  0  0.112027  0.111953  0  1.039708  0
H  H4  1  0.23496779  0.45311312  0.83114321  1  0  0.115549  0  0.93358  0  0  0.124698  0  0.994774  0  0  0.128525  0  0.991721  0  0  0.121074  0.121822  0  0.997134  0
H  H5  1  0.76503481  0.54689636  0.16885819  1  0  0.115582  0  0.933492  0  0  0.124702  0  0.994729  0  0  0.128527  0  0.991677  0  0  0.121088  0.121824  0  0.997093  0
H  H6  1  0.18928203  0.03535538  0.02013983  1  0  0.077903  0  0.955225  0  0  0.083185  0  1.028626  0  0  0.086725  0  1.024523  0  0  0.118656  0.080462  0  1.031857  0
H  H7  1  0.81072100  0.96464553  0.97986007  1  0  0.077842  0  0.95514  0  0  0.083088  0  1.028608  0  0  0.086636  0  1.024487  0  0  0.118621  0.080366  0  1.031839  0
H  H8  1  0.05033084  0.72683418  0.53855134  1  0  0.413415  0  0.903269  0  0  0.379809  0  0.971703  0  0  0.392206  0  0.953841  0  0  0.298192  0.37096  0  0.984446  0
H  H9  1  0.94966757  0.27316343  0.46144919  1  0  0.413433  0  0.903243  0  0  0.379818  0  0.971696  0  0  0.392217  0  0.95383  0  0  0.298194  0.370969  0  0.984439  0
H  H10  1  0.88302485  0.60333029  0.40305369  1  0  0.436382  0  0.853642  0  0  0.405826  0  0.91667  0  0  0.41639  0  0.901124  0  0  0.311359  0.398172  0  0.92796  0
H  H11  1  0.11697518  0.39667070  0.59694711  1  0  0.436361  0  0.853668  0  0  0.4058  0  0.916702  0  0  0.416366  0  0.901154  0  0  0.311343  0.398145  0  0.927994  0
C  C12  1  0.32686724  0.68639099  0.16057093  1  0  0.095251  0  3.733862  0  0  0.100575  0  3.975689  0  0  0.101607  0  3.994279  0  0  0.117398  0.099731  0  3.963271  0
C  C13  1  0.67312089  0.31359476  0.83942652  1  0  0.095199  0  3.733804  0  0  0.10052  0  3.975627  0  0  0.101549  0  3.994219  0  0  0.117395  0.099691  0  3.963182  0
C  C14  1  0.29971857  0.53046924  0.04880921  1  0  -0.11406  0  3.731272  0  0  -0.134393  0  3.979463  0  0  -0.139861  0  4.000978  0  0  -0.074011  -0.130919  0  3.965435  0
C  C15  1  0.70028009  0.46953845  0.95118797  1  0  -0.113955  0  3.731022  0  0  -0.134294  0  3.979199  0  0  -0.139757  0  4.00071  0  0  -0.073993  -0.130823  0  3.965167  0
C  C16  1  0.24809965  0.56748846  0.92053764  1  0  -0.010512  0  3.677497  0  0  -0.041001  0  3.931837  0  0  -0.036941  0  3.947948  0  0  -0.05561  -0.043429  0  3.920946  0
C  C17  1  0.75190583  0.43251754  0.07946266  1  0  -0.010543  0  3.677486  0  0  -0.041013  0  3.931836  0  0  -0.036951  0  3.947949  0  0  -0.0556  -0.043442  0  3.920949  0
C  C18  1  0.21188991  0.75461593  0.90809111  1  0  -0.108527  0  3.727307  0  0  -0.08399  0  3.965939  0  0  -0.093819  0  3.987983  0  0  -0.005622  -0.077901  0  3.951063  0
C  C19  1  0.78809801  0.24538520  0.09190827  1  0  -0.108536  0  3.727409  0  0  -0.083987  0  3.966019  0  0  -0.093824  0  3.98808  0  0  -0.005628  -0.0779  0  3.951148  0
C  C20  1  0.22715531  0.89420553  0.02655758  1  0  0.129858  0  3.695851  0  0  0.090395  0  3.958067  0  0  0.09725  0  3.973965  0  0  0.058932  0.086125  0  3.947213  0
C  C21  1  0.77284033  0.10579896  0.97344428  1  0  0.129902  0  3.695907  0  0  0.090455  0  3.958144  0  0  0.097313  0  3.974047  0  0  0.059001  0.086185  0  3.947291  0
C  C22  1  0.40575251  0.66051753  0.29928293  1  0  0.665708  0  3.907604  0  0  0.613287  0  4.204306  0  0  0.647655  0  4.193726  0  0  0.235306  0.590008  0  4.210661  0
C  C23  1  0.59424585  0.33948001  0.70071560  1  0  0.665655  0  3.907857  0  0  0.613251  0  4.20449  0  0  0.647622  0  4.193916  0  0  0.235275  0.58997  0  4.210838  0
C  C24  1  0.14833079  0.79991180  0.77218925  1  0  0.662773  0  3.920714  0  0  0.605819  0  4.227247  0  0  0.639497  0  4.220311  0  0  0.223415  0.583196  0  4.230802  0
C  C25  1  0.85166606  0.20008576  0.22780924  1  0  0.662764  0  3.920822  0  0  0.605822  0  4.227346  0  0  0.639502  0  4.220411  0  0  0.223367  0.583199  0  4.230903  0
N  N26  1  0.28779899  0.86556609  0.14979129  1  0  -0.385295  0  3.174334  0  0  -0.334361  0  3.437955  0  0  -0.347416  0  3.454909  0  0  -0.35553  -0.325443  0  3.426483  0
N  N27  1  0.71220572  0.13443504  0.85021565  1  0  -0.385262  0  3.174509  0  0  -0.334318  0  3.438127  0  0  -0.347373  0  3.455082  0  0  -0.355568  -0.325403  0  3.426647  0
O  O28  1  0.44430281  0.81795190  0.39552057  1  0  -0.730306  0  2.035871  0  0  -0.664832  0  2.289423  0  0  -0.691134  0  2.277824  0  0  -0.400112  -0.646233  0  2.296552  0
O  O29  1  0.55570075  0.18203735  0.60448659  1  0  -0.730287  0  2.035841  0  0  -0.664834  0  2.289419  0  0  -0.691108  0  2.277764  0  0  -0.40011  -0.646246  0  2.296566  0
O  O30  1  0.43319325  0.48805052  0.31049989  1  0  -0.699807  0  1.983409  0  0  -0.643311  0  2.236329  0  0  -0.668041  0  2.223709  0  0  -0.372379  -0.625681  0  2.244551  0
O  O31  1  0.56680782  0.51194331  0.68949055  1  0  -0.699782  0  1.98354  0  0  -0.643272  0  2.236412  0  0  -0.668019  0  2.223823  0  0  -0.372341  -0.625642  0  2.244636  0
O  O32  1  0.05981880  0.93183615  0.76855522  1  0  -0.671662  0  1.92349  0  0  -0.615015  0  2.164591  0  0  -0.641149  0  2.157029  0  0  -0.352326  -0.596047  0  2.169144  0
O  O33  1  0.94018677  0.06817322  0.23144429  1  0  -0.67161  0  1.923636  0  0  -0.614977  0  2.164712  0  0  -0.64111  0  2.15715  0  0  -0.352278  -0.596009  0  2.169266  0
O  O34  1  0.18589768  0.69701605  0.66865406  1  0  -0.67082  0  1.986138  0  0  -0.603602  0  2.210581  0  0  -0.629404  0  2.199945  0  0  -0.295344  -0.585441  0  2.21721  0
O  O35  1  0.81410386  0.30298492  0.33134679  1  0  -0.670823  0  1.986097  0  0  -0.603627  0  2.210568  0  0  -0.629433  0  2.199931  0  0  -0.295339  -0.585466  0  2.217198  0
O  O36  1  0.95721453  0.75024682  0.46306348  1  0  -0.914838  0  1.817565  0  0  -0.850503  0  2.008536  0  0  -0.872215  0  1.975209  0  0  -0.630858  -0.835233  0  2.032541  0
O  O37  1  0.04278847  0.24975082  0.53694020  1  0  -0.914851  0  1.81755  0  0  -0.850505  0  2.008526  0  0  -0.872216  0  1.975185  0  0  -0.630851  -0.835234  0  2.032532  0
