# generated using pymatgen
data_CuH7C5(NO2)2
_symmetry_space_group_name_H-M   'P 1'
_cell_length_a   7.24125242
_cell_length_b   7.25043611
_cell_length_c   7.70025577
_cell_angle_alpha   88.98424069
_cell_angle_beta   77.11280250
_cell_angle_gamma   87.01539393
_symmetry_Int_Tables_number   1
_chemical_formula_structural   CuH7C5(NO2)2
_chemical_formula_sum   'Cu2 H14 C10 N4 O8'
_cell_volume   393.55492472
_cell_formula_units_Z   2
loop_
 _symmetry_equiv_pos_site_id
 _symmetry_equiv_pos_as_xyz
  1  'x, y, z'
loop_
 _atom_site_type_symbol
 _atom_site_label
 _atom_site_symmetry_multiplicity
 _atom_site_fract_x
 _atom_site_fract_y
 _atom_site_fract_z
 _atom_site_occupancy
 _atom_site_hle17_ddec_charge
 _atom_site_hle17_ddec_spin_density
 _atom_site_hle17_ddec_sum_bond_order
 _atom_site_hle17_magmom
 _atom_site_hse06_10hf_ddec_charge
 _atom_site_hse06_10hf_ddec_spin_density
 _atom_site_hse06_10hf_ddec_sum_bond_order
 _atom_site_hse06_10hf_magmom
 _atom_site_hse06_ddec_charge
 _atom_site_hse06_ddec_spin_density
 _atom_site_hse06_ddec_sum_bond_order
 _atom_site_hse06_magmom
 _atom_site_pbe_cm5_charge
 _atom_site_pbe_ddec_charge
 _atom_site_pbe_ddec_spin_density
 _atom_site_pbe_ddec_sum_bond_order
 _atom_site_pbe_magmom
Cu  Cu0  1  0.36184647  0.20854868  0.52663638  1  0.943251  -0.673264  1.70541  -0.507  0.935249  -0.766238  2.096597  -0.62  1.021611  -0.825369  2.027226  -0.698  0.716474  0.88079  -0.725632  2.145948  -0.57
Cu  Cu1  1  0.63816429  0.79144355  0.47335699  1  0.943284  -0.673264  1.705395  -0.507  0.935307  -0.766228  2.096557  -0.62  1.021645  -0.825359  2.027208  -0.698  0.716485  0.880868  -0.725626  2.145888  -0.57
H  H2  1  0.68054608  0.30438884  0.57155843  1  0.354961  0.00121  0.901292  0.001  0.340521  -0.000348  0.963154  0.0  0.348349  -5.1e-05  0.957887  0.0  0.290756  0.334854  -0.000583  0.967312  0.0
H  H3  1  0.31945621  0.69562786  0.42843489  1  0.354775  0.001219  0.901452  0.001  0.340373  -0.000349  0.963272  0.0  0.348202  -5.2e-05  0.958001  0.0  0.290682  0.334703  -0.000584  0.967435  0.0
H  H4  1  0.55907522  0.21140805  0.75504775  1  0.337648  0.00205  0.882679  0.002  0.331954  0.000179  0.934055  0.0  0.338557  0.000507  0.930756  0.001  0.295909  0.327252  -0.000109  0.936657  0.0
H  H5  1  0.44093668  0.78861065  0.24495141  1  0.33753  0.002059  0.882706  0.002  0.331832  0.000179  0.934096  0.0  0.338436  0.000506  0.930797  0.001  0.295861  0.327133  -0.000109  0.936695  0.0
H  H6  1  0.50955455  0.43354206  0.71203168  1  0.352334  0.001104  0.924176  0.001  0.337503  -7.9e-05  0.989789  0.0  0.345972  0.000255  0.982905  0.0  0.28188  0.331365  -0.000381  0.995114  0.0
H  H7  1  0.49044429  0.56646749  0.28796375  1  0.352325  0.001105  0.92419  0.001  0.337483  -7.9e-05  0.98983  0.0  0.34595  0.000254  0.98295  0.0  0.281889  0.331349  -0.000382  0.995148  0.0
H  H8  1  0.15187712  0.47238942  0.70076486  1  0.351555  0.001138  0.903593  0.001  0.337541  -0.000151  0.965737  0.0  0.345421  0.000127  0.960261  0.0  0.286585  0.331971  -0.000382  0.969799  0.0
H  H9  1  0.84811341  0.52761958  0.29922055  1  0.351613  0.001143  0.903467  0.001  0.337572  -0.00015  0.965644  0.0  0.345452  0.000128  0.960166  0.0  0.286609  0.332  -0.000382  0.969712  0.0
H  H10  1  0.10396591  0.27574374  0.81201580  1  0.330117  0.001028  0.900994  0.001  0.324166  -0.000406  0.954649  0.0  0.32924  -7e-05  0.953983  0.0  0.289477  0.320553  -0.000661  0.955448  0.0
H  H11  1  0.89602625  0.72427511  0.18797559  1  0.330107  0.001034  0.900954  0.001  0.32415  -0.000406  0.954645  0.0  0.329224  -6.9e-05  0.953977  0.0  0.289494  0.320541  -0.000661  0.955441  0.0
H  H12  1  0.02608227  0.32049691  0.62438228  1  0.345667  0.000473  0.91541  0.001  0.329631  -0.000841  0.979163  0.0  0.338596  -0.000371  0.971961  0.0  0.283864  0.323263  -0.001207  0.984442  0.0
H  H13  1  0.97391946  0.67951280  0.37560608  1  0.345663  0.000482  0.915342  0.001  0.329647  -0.00084  0.979057  0.0  0.338611  -0.000371  0.971855  0.0  0.283928  0.323281  -0.001206  0.984337  0.0
H  H14  1  0.68673845  0.02086167  0.92134600  1  0.105429  -0.00024  0.953111  0.0  0.116367  -0.000299  1.012426  0.0  0.120306  -0.000191  1.009555  0.0  0.106398  0.113548  -0.000394  1.014567  0.0
H  H15  1  0.31325586  0.97912405  0.07866375  1  0.105578  -0.000233  0.953276  0.0  0.116448  -0.000299  1.012625  0.0  0.120385  -0.000191  1.009753  0.0  0.106434  0.113632  -0.000394  1.014755  0.0
C  C16  1  0.05905698  0.16715994  0.32463812  1  0.654725  0.003977  3.889389  0.004  0.608912  -0.000197  4.187177  0.0  0.645615  0.000523  4.179848  0.0  0.213597  0.583835  -0.000884  4.19137  0.0
C  C17  1  0.94094942  0.83283206  0.67536652  1  0.654951  0.003976  3.889433  0.004  0.609087  -0.000196  4.187327  0.0  0.645777  0.000522  4.179998  0.0  0.213735  0.584037  -0.000885  4.191528  0.0
C  C18  1  0.02547885  0.08343605  0.15693185  1  -0.065994  -0.008048  3.717567  -0.009  -0.054022  -0.005473  3.954086  -0.006  -0.058735  -0.003677  3.97266  -0.004  -0.012587  -0.051034  -0.007253  3.941783  -0.008
C  C19  1  0.97451452  0.91654814  0.84305344  1  -0.066202  -0.00816  3.717593  -0.009  -0.054276  -0.005469  3.954259  -0.006  -0.05895  -0.003672  3.972774  -0.004  -0.012797  -0.051373  -0.00725  3.942066  -0.008
C  C20  1  0.82460206  0.01389068  0.95660121  1  -0.100068  -0.001966  3.724023  -0.002  -0.129449  -0.001933  3.970938  -0.002  -0.129  -0.001123  3.987546  -0.001  -0.085263  -0.129608  -0.002707  3.959854  -0.002
C  C21  1  0.17540627  0.98609591  0.04341093  1  -0.100472  -0.002111  3.724464  -0.002  -0.129814  -0.001932  3.971369  -0.001  -0.12935  -0.001121  3.987979  -0.001  -0.085455  -0.129989  -0.002705  3.960255  -0.002
C  C22  1  0.84740320  0.09833179  0.11156711  1  -0.05605  -0.01024  3.741207  -0.011  -0.046579  -0.006197  3.986435  -0.007  -0.049934  -0.003928  4.00413  -0.005  -0.010344  -0.044681  -0.008451  3.974762  -0.009
C  C23  1  0.15257574  0.90167524  0.88845700  1  -0.055925  -0.010127  3.740862  -0.011  -0.04647  -0.006201  3.986156  -0.007  -0.049827  -0.003931  4.003821  -0.005  -0.010361  -0.044548  -0.008455  3.974509  -0.009
C  C24  1  0.67678491  0.19792342  0.22555184  1  0.657782  0.006119  3.942642  0.006  0.606613  0.001209  4.258626  0.002  0.644171  0.001824  4.248587  0.002  0.205181  0.581108  0.00057  4.264298  0.002
C  C25  1  0.32320925  0.80206368  0.77445662  1  0.658031  0.006086  3.941693  0.006  0.606869  0.00121  4.257741  0.002  0.644428  0.001825  4.247697  0.002  0.205336  0.581351  0.000571  4.263445  0.002
N  N26  1  0.54895811  0.30474704  0.65637106  1  -0.859126  -0.099005  2.916405  -0.124  -0.855486  -0.067737  3.154312  -0.087  -0.890809  -0.053477  3.139086  -0.075  -0.78629  -0.833713  -0.075648  3.166545  -0.092
N  N27  1  0.45104758  0.69526433  0.34362557  1  -0.858828  -0.099031  2.916569  -0.124  -0.855215  -0.067746  3.154425  -0.087  -0.890532  -0.053485  3.139209  -0.075  -0.786183  -0.833455  -0.075656  3.166647  -0.092
N  N28  1  0.13611182  0.33361965  0.68772067  1  -0.871632  -0.087893  2.95895  -0.111  -0.866742  -0.060557  3.201271  -0.078  -0.900051  -0.048402  3.184599  -0.068  -0.79182  -0.84612  -0.067233  3.214148  -0.082
N  N29  1  0.86389057  0.66638454  0.31226636  1  -0.871656  -0.087908  2.958771  -0.111  -0.866769  -0.060553  3.201068  -0.078  -0.900068  -0.0484  3.184396  -0.068  -0.791903  -0.846156  -0.067227  3.213936  -0.082
O  O30  1  0.58532184  0.09735985  0.35259489  1  -0.635065  -0.070952  2.165187  -0.102  -0.606434  -0.046263  2.472919  -0.071  -0.651355  -0.034899  2.463034  -0.059  -0.326631  -0.575698  -0.054256  2.479659  -0.079
O  O31  1  0.41468338  0.90261954  0.64739332  1  -0.635182  -0.070942  2.164819  -0.102  -0.606673  -0.046274  2.472722  -0.071  -0.651602  -0.034907  2.462836  -0.059  -0.326719  -0.5759  -0.054267  2.479399  -0.079
O  O32  1  0.63139532  0.35902506  0.18549856  1  -0.610392  -0.000108  1.924359  -0.002  -0.566233  -9.8e-05  2.140803  -0.002  -0.589558  0.001139  2.128767  0.0  -0.320755  -0.54921  -0.001408  2.148281  -0.003
O  O33  1  0.36859531  0.64095625  0.81450681  1  -0.610442  -0.000114  1.924235  -0.002  -0.56627  -9.6e-05  2.140695  -0.002  -0.589594  0.001139  2.128656  0.0  -0.320733  -0.549247  -0.001407  2.148182  -0.003
O  O34  1  0.21444954  0.10848459  0.36535868  1  -0.61233  -0.066043  2.093066  -0.093  -0.584192  -0.044849  2.381403  -0.068  -0.623754  -0.03396  2.370467  -0.056  -0.332298  -0.557029  -0.052854  2.388534  -0.076
O  O35  1  0.78555831  0.89150614  0.63465479  1  -0.61241  -0.066044  2.092921  -0.093  -0.584243  -0.044846  2.381264  -0.068  -0.623802  -0.033957  2.370341  -0.056  -0.332272  -0.557079  -0.052851  2.388373  -0.076
O  O36  1  0.93882710  0.28406125  0.40929298  1  -0.622737  0.000743  1.996516  -0.001  -0.559151  0.000276  2.204646  -0.001  -0.584485  0.001142  2.19692  0.0  -0.304039  -0.541269  -0.000525  2.209499  -0.001
O  O37  1  0.06118662  0.71595341  0.59071108  1  -0.622815  0.000746  1.996532  -0.001  -0.559209  0.000276  2.204665  -0.001  -0.584541  0.001141  2.196946  0.0  -0.304124  -0.541326  -0.000525  2.209513  -0.001
