# generated using pymatgen
data_GdH7C2SO8
_symmetry_space_group_name_H-M   'P 1'
_cell_length_a   6.70464906
_cell_length_b   6.84219572
_cell_length_c   8.58194072
_cell_angle_alpha   111.79283350
_cell_angle_beta   89.69241307
_cell_angle_gamma   107.34781903
_symmetry_Int_Tables_number   1
_chemical_formula_structural   GdH7C2SO8
_chemical_formula_sum   'Gd2 H14 C4 S2 O16'
_cell_volume   346.45504948
_cell_formula_units_Z   2
loop_
 _symmetry_equiv_pos_site_id
 _symmetry_equiv_pos_as_xyz
  1  'x, y, z'
loop_
 _atom_site_type_symbol
 _atom_site_label
 _atom_site_symmetry_multiplicity
 _atom_site_fract_x
 _atom_site_fract_y
 _atom_site_fract_z
 _atom_site_occupancy
 _atom_site_pbe_bader_spin_density
 _atom_site_pbe_cm5_charge
 _atom_site_pbe_ddec_charge
 _atom_site_pbe_ddec_spin_density
 _atom_site_pbe_ddec_sum_bond_order
 _atom_site_pbe_magmom
Gd  Gd0  1  0.11930924  0.35422581  0.13364138  1  0  1.488614  2.164021  0  2.05368  0
Gd  Gd1  1  0.88069111  0.64577213  0.86635640  1  0  1.488618  2.164026  0  2.053771  0
H  H2  1  0.11603254  0.20318998  0.42630127  1  0  0.302953  0.399663  0  0.933183  0
H  H3  1  0.88396631  0.79680799  0.57369768  1  0  0.302947  0.399646  0  0.9332  0
H  H4  1  0.92570139  0.01945902  0.28622707  1  0  0.307454  0.400621  0  0.931995  0
H  H5  1  0.07429649  0.98054059  0.71377117  1  0  0.307481  0.40065  0  0.931975  0
H  H6  1  0.17515836  0.68528783  0.50641284  1  0  0.313367  0.427924  0  0.882727  0
H  H7  1  0.82484050  0.31471009  0.49358377  1  0  0.31335  0.427887  0  0.882775  0
H  H8  1  0.40582770  0.68536257  0.44785862  1  0  0.305258  0.39816  0  0.940046  0
H  H9  1  0.59417167  0.31463704  0.55213963  1  0  0.305249  0.39813  0  0.940097  0
H  H10  1  0.45438552  0.94829730  0.33450213  1  0  0.106025  0.165489  0  1.018081  0
H  H11  1  0.54561038  0.05170579  0.66550291  1  0  0.10602  0.165471  0  1.018161  0
H  H12  1  0.58726157  0.97233874  0.16051906  1  0  0.119569  0.193108  0  0.996979  0
H  H13  1  0.41273925  0.02766106  0.83948741  1  0  0.119555  0.193109  0  0.996969  0
H  H14  1  0.48535560  0.18664432  0.28012140  1  0  0.10545  0.1566  0  1.044965  0
H  H15  1  0.51464376  0.81335532  0.71987802  1  0  0.105456  0.156592  0  1.044962  0
C  C16  1  0.26161905  0.88476475  0.11472439  1  0  0.237825  0.776498  0  4.032199  0
C  C17  1  0.73837826  0.11522830  0.88527550  1  0  0.237819  0.776412  0  4.032128  0
C  C18  1  0.45798746  0.00835208  0.23270448  1  0  -0.247459  -0.543052  0  3.818128  0
C  C19  1  0.54201389  0.99164927  0.76729776  1  0  -0.24741  -0.542971  0  3.81821  0
S  S20  1  0.29989827  0.39789000  0.74660093  1  0  0.611178  1.505458  0  6.280308  0
S  S21  1  0.70009960  0.60210962  0.25339732  1  0  0.611404  1.505911  0  6.28034  0
O  O22  1  0.21052266  0.25736565  0.84514584  1  0  -0.39403  -0.750608  0  2.357598  0
O  O23  1  0.78946913  0.74262425  0.15485897  1  0  -0.394022  -0.750705  0  2.357753  0
O  O24  1  0.16050470  0.52623916  0.73732563  1  0  -0.414847  -0.731119  0  2.334137  0
O  O25  1  0.83948630  0.47376710  0.26267213  1  0  -0.414855  -0.731214  0  2.334188  0
O  O26  1  0.31566883  0.24923807  0.57221941  1  0  -0.336702  -0.652512  0  2.189054  0
O  O27  1  0.68433101  0.75075299  0.42776711  1  0  -0.33687  -0.652685  0  2.18913  0
O  O28  1  0.51192759  0.55190325  0.83063621  1  0  -0.419529  -0.742792  0  2.31799  0
O  O29  1  0.48808371  0.44810137  0.16936698  1  0  -0.419635  -0.742957  0  2.318054  0
O  O30  1  0.17142215  0.67869915  0.08044829  1  0  -0.421826  -0.74817  0  2.448475  0
O  O31  1  0.82858418  0.32130377  0.91955208  1  0  -0.421862  -0.748241  0  2.448307  0
O  O32  1  0.17972456  0.97932296  0.03990817  1  0  -0.403664  -0.73383  0  2.317777  0
O  O33  1  0.82027577  0.02067510  0.96009430  1  0  -0.403625  -0.733746  0  2.317873  0
O  O34  1  0.00174200  0.18159560  0.34104797  1  0  -0.609763  -0.821284  0  2.089154  0
O  O35  1  0.99825690  0.81840736  0.65895239  1  0  -0.609784  -0.821296  0  2.089197  0
O  O36  1  0.25283378  0.62657859  0.41142307  1  0  -0.649864  -0.864133  0  2.132318  0
O  O37  1  0.74716610  0.37342268  0.58857565  1  0  -0.649845  -0.864063  0  2.132376  0
