# generated using pymatgen
data_CuH6C6(NO2)2
_symmetry_space_group_name_H-M   'P 1'
_cell_length_a   6.84061534
_cell_length_b   6.84088872
_cell_length_c   8.57022798
_cell_angle_alpha   92.23536129
_cell_angle_beta   92.23505399
_cell_angle_gamma   68.84269104
_symmetry_Int_Tables_number   1
_chemical_formula_structural   CuH6C6(NO2)2
_chemical_formula_sum   'Cu2 H12 C12 N4 O8'
_cell_volume   373.59947089
_cell_formula_units_Z   2
loop_
 _symmetry_equiv_pos_site_id
 _symmetry_equiv_pos_as_xyz
  1  'x, y, z'
loop_
 _atom_site_type_symbol
 _atom_site_label
 _atom_site_symmetry_multiplicity
 _atom_site_fract_x
 _atom_site_fract_y
 _atom_site_fract_z
 _atom_site_occupancy
 _atom_site_pbe_cm5_charge
 _atom_site_pbe_ddec_charge
 _atom_site_pbe_ddec_spin_density
 _atom_site_pbe_ddec_sum_bond_order
 _atom_site_pbe_magmom
Cu  Cu0  1  0.50000467  0.99999528  0.99999807  1  0.738287  0.796428  -0.731707  2.228495  -0.574
Cu  Cu1  1  0.99999736  0.49999693  0.50000140  1  0.738359  0.79644  -0.73189  2.229116  -0.575
H  H2  1  0.17872493  0.80466002  0.02611835  1  0.12527  0.112682  -0.001577  1.039146  -0.002
H  H3  1  0.19531478  0.82125998  0.47383379  1  0.125377  0.112683  -0.001578  1.039115  -0.002
H  H4  1  0.82128462  0.19532933  0.97387269  1  0.125295  0.112673  -0.001577  1.039154  -0.002
H  H5  1  0.80467272  0.17874962  0.52616540  1  0.125388  0.112643  -0.001578  1.039241  -0.002
H  H6  1  0.82388483  0.56088105  0.96347976  1  0.126278  0.106883  -0.001692  1.029255  -0.002
H  H7  1  0.43914157  0.17610457  0.53653327  1  0.126292  0.106899  -0.001692  1.029302  -0.002
H  H8  1  0.17612226  0.43911446  0.03650435  1  0.126246  0.106896  -0.001692  1.029291  -0.002
H  H9  1  0.56085936  0.82390056  0.46346841  1  0.126308  0.10693  -0.001692  1.029336  -0.002
H  H10  1  0.82206821  0.91685584  0.34931456  1  0.106279  0.019325  -0.000476  1.033638  -0.001
H  H11  1  0.08322051  0.17796755  0.15075483  1  0.10651  0.019683  -0.000474  1.034471  -0.001
H  H12  1  0.17795032  0.08314184  0.65069547  1  0.106297  0.019333  -0.000476  1.033658  -0.001
H  H13  1  0.91680996  0.82204936  0.84926158  1  0.106384  0.019457  -0.000475  1.03434  -0.001
C  C14  1  0.32275753  0.66871788  0.01486060  1  0.060768  0.059409  -0.002695  3.851796  -0.004
C  C15  1  0.33126529  0.67723386  0.48510707  1  0.060811  0.059585  -0.002696  3.851668  -0.004
C  C16  1  0.67723537  0.33127269  0.98512551  1  0.060791  0.059409  -0.002694  3.851513  -0.004
C  C17  1  0.66873389  0.32276807  0.51489335  1  0.060817  0.05965  -0.002696  3.851786  -0.004
C  C18  1  0.67909456  0.53386724  0.97975972  1  0.062231  0.073637  -0.00306  3.849679  -0.004
C  C19  1  0.46614362  0.32089518  0.52024256  1  0.062131  0.073435  -0.003063  3.849679  -0.004
C  C20  1  0.32090065  0.46613286  0.02022776  1  0.062252  0.073582  -0.003062  3.84989  -0.004
C  C21  1  0.53386073  0.67910836  0.47975448  1  0.062133  0.073424  -0.003062  3.849689  -0.004
C  C22  1  0.87619035  0.80356265  0.25027378  1  0.132741  0.482153  0.003322  4.207169  0.003
C  C23  1  0.19640083  0.12384594  0.24970849  1  0.132235  0.48155  0.003324  4.209419  0.003
C  C24  1  0.12380581  0.19643624  0.74973704  1  0.132613  0.481998  0.003324  4.207394  0.003
C  C25  1  0.80359620  0.87617326  0.75028870  1  0.132379  0.481688  0.003322  4.209159  0.003
N  N26  1  0.50180068  0.70185165  0.99485672  1  -0.318996  -0.176406  -0.05034  3.56801  -0.066
N  N27  1  0.29814988  0.49818747  0.50512073  1  -0.319067  -0.176386  -0.050362  3.56763  -0.066
N  N28  1  0.49818702  0.29814519  0.00513290  1  -0.319023  -0.176375  -0.050336  3.56788  -0.066
N  N29  1  0.70185192  0.50181134  0.49487851  1  -0.319069  -0.176378  -0.050371  3.567719  -0.066
O  O30  1  0.85347147  0.86831935  0.11326018  1  -0.328761  -0.548717  -0.011246  2.321006  -0.017
O  O31  1  0.13171589  0.14652229  0.38671090  1  -0.328733  -0.548615  -0.011286  2.321428  -0.017
O  O32  1  0.14652182  0.13167953  0.88675292  1  -0.328637  -0.548604  -0.011243  2.321254  -0.017
O  O33  1  0.86830089  0.85349090  0.61328419  1  -0.328749  -0.548552  -0.011277  2.321458  -0.017
O  O34  1  0.96141572  0.60843303  0.28367754  1  -0.334993  -0.527276  -0.066292  2.396045  -0.095
O  O35  1  0.39152820  0.03853953  0.21637223  1  -0.334742  -0.526953  -0.066335  2.396194  -0.095
O  O36  1  0.03855916  0.39157178  0.71633067  1  -0.334941  -0.52724  -0.066288  2.395948  -0.095
O  O37  1  0.60847095  0.96144365  0.78363954  1  -0.334764  -0.526972  -0.066313  2.396357  -0.095
