# generated using pymatgen
data_MgH7C5O7
_symmetry_space_group_name_H-M   'P 1'
_cell_length_a   5.92980022
_cell_length_b   7.31637496
_cell_length_c   8.98753357
_cell_angle_alpha   105.39442632
_cell_angle_beta   105.63927804
_cell_angle_gamma   97.20901413
_symmetry_Int_Tables_number   1
_chemical_formula_structural   MgH7C5O7
_chemical_formula_sum   'Mg2 H14 C10 O14'
_cell_volume   353.76550562
_cell_formula_units_Z   2
loop_
 _symmetry_equiv_pos_site_id
 _symmetry_equiv_pos_as_xyz
  1  'x, y, z'
loop_
 _atom_site_type_symbol
 _atom_site_label
 _atom_site_symmetry_multiplicity
 _atom_site_fract_x
 _atom_site_fract_y
 _atom_site_fract_z
 _atom_site_occupancy
 _atom_site_hle17_bader_spin_density
 _atom_site_hle17_ddec_charge
 _atom_site_hle17_ddec_spin_density
 _atom_site_hle17_ddec_sum_bond_order
 _atom_site_hle17_magmom
 _atom_site_hse06_10hf_bader_spin_density
 _atom_site_hse06_10hf_ddec_charge
 _atom_site_hse06_10hf_ddec_spin_density
 _atom_site_hse06_10hf_ddec_sum_bond_order
 _atom_site_hse06_10hf_magmom
 _atom_site_hse06_bader_spin_density
 _atom_site_hse06_ddec_charge
 _atom_site_hse06_ddec_spin_density
 _atom_site_hse06_ddec_sum_bond_order
 _atom_site_hse06_magmom
 _atom_site_pbe_bader_spin_density
 _atom_site_pbe_cm5_charge
 _atom_site_pbe_ddec_charge
 _atom_site_pbe_ddec_spin_density
 _atom_site_pbe_ddec_sum_bond_order
 _atom_site_pbe_magmom
Mg  Mg0  1  0.00657314  0.82271052  0.68946937  1  0  1.556275  0  1.053356  0  0  1.444449  0  1.313186  0  0  1.468763  0  1.274889  0  0  0.813802  1.42705  0  1.3405  0
Mg  Mg1  1  0.99342785  0.17729025  0.31053164  1  0  1.556308  0  1.053307  0  0  1.444467  0  1.313175  0  0  1.468755  0  1.27491  0  0  0.813818  1.427072  0  1.340486  0
H  H2  1  0.22412856  0.96449303  0.04532223  1  0  0.439358  0  0.854728  0  0  0.408472  0  0.916956  0  0  0.418862  0  0.901747  0  0  0.299573  0.400936  0  0.928002  0
H  H3  1  0.77587165  0.03550484  0.95467802  1  0  0.439338  0  0.85476  0  0  0.408451  0  0.916991  0  0  0.418842  0  0.901781  0  0  0.299561  0.400915  0  0.928038  0
H  H4  1  0.34825720  0.05403954  0.94107053  1  0  0.418026  0  0.855402  0  0  0.39009  0  0.930052  0  0  0.398513  0  0.920145  0  0  0.310753  0.383923  0  0.937447  0
H  H5  1  0.65174203  0.94596124  0.05893128  1  0  0.418006  0  0.855428  0  0  0.390067  0  0.930083  0  0  0.39849  0  0.920176  0  0  0.31073  0.3839  0  0.937478  0
H  H6  1  0.26657024  0.71187367  0.50820091  1  0  0.428116  0  0.881095  0  0  0.391186  0  0.954066  0  0  0.40323  0  0.936563  0  0  0.298591  0.382417  0  0.966743  0
H  H7  1  0.73342862  0.28812565  0.49179830  1  0  0.428128  0  0.88108  0  0  0.391198  0  0.95405  0  0  0.403243  0  0.936544  0  0  0.2986  0.38243  0  0.966724  0
H  H8  1  0.26984376  0.56193852  0.60806131  1  0  0.431601  0  0.866811  0  0  0.395527  0  0.939316  0  0  0.406374  0  0.923515  0  0  0.298722  0.387595  0  0.95102  0
H  H9  1  0.73015548  0.43806225  0.39193939  1  0  0.431596  0  0.866812  0  0  0.395527  0  0.939313  0  0  0.406375  0  0.923511  0  0  0.298715  0.387596  0  0.951016  0
H  H10  1  0.70316657  0.07347097  0.70901261  1  0  0.443524  0  0.852307  0  0  0.405339  0  0.925992  0  0  0.416737  0  0.909561  0  0  0.301141  0.397182  0  0.937753  0
H  H11  1  0.29683578  0.92652834  0.29098834  1  0  0.44362  0  0.852212  0  0  0.405447  0  0.925866  0  0  0.416845  0  0.909435  0  0  0.301178  0.39729  0  0.937627  0
H  H12  1  0.56980697  0.86302242  0.70369097  1  0  0.443886  0  0.846133  0  0  0.411682  0  0.910575  0  0  0.422508  0  0.89487  0  0  0.305274  0.403999  0  0.921767  0
H  H13  1  0.43019324  0.13697544  0.29630928  1  0  0.443893  0  0.846139  0  0  0.411685  0  0.910574  0  0  0.422509  0  0.894873  0  0  0.305269  0.404003  0  0.921765  0
H  H14  1  0.08880716  0.31222070  0.93501836  1  0  0.108397  0  0.951307  0  0  0.117656  0  1.013628  0  0  0.120962  0  1.012174  0  0  0.11237  0.115154  0  1.015118  0
H  H15  1  0.91119344  0.68777861  0.06498116  1  0  0.108374  0  0.951325  0  0  0.11763  0  1.013654  0  0  0.120936  0  1.012199  0  0  0.112355  0.11513  0  1.015136  0
C  C16  1  0.24331383  0.23810983  0.67345985  1  0  0.732405  0  3.870265  0  0  0.66989  0  4.180835  0  0  0.705047  0  4.167705  0  0  0.235847  0.645477  0  4.189944  0
C  C17  1  0.75668581  0.76189239  0.32654011  1  0  0.732412  0  3.87026  0  0  0.669947  0  4.180768  0  0  0.705097  0  4.167648  0  0  0.235875  0.645529  0  4.189885  0
C  C18  1  0.37969953  0.37235478  0.84208496  1  0  -0.068719  0  3.71537  0  0  -0.056675  0  3.954691  0  0  -0.059447  0  3.971523  0  0  -0.007839  -0.05461  0  3.943911  0
C  C19  1  0.62029971  0.62764599  0.15791573  1  0  -0.068636  0  3.715269  0  0  -0.05661  0  3.954579  0  0  -0.05938  0  3.971413  0  0  -0.007804  -0.05454  0  3.943801  0
C  C20  1  0.26986634  0.39374663  0.96319668  1  0  -0.083453  0  3.713418  0  0  -0.113691  0  3.963917  0  0  -0.113356  0  3.981012  0  0  -0.07551  -0.115051  0  3.95361  0
C  C21  1  0.73013543  0.60625703  0.03680510  1  0  -0.08349  0  3.71329  0  0  -0.113722  0  3.963789  0  0  -0.113387  0  3.980884  0  0  -0.075537  -0.115081  0  3.953476  0
C  C22  1  0.61346752  0.47843843  0.88008557  1  0  -0.065896  0  3.722397  0  0  -0.054641  0  3.963352  0  0  -0.058348  0  3.98172  0  0  -0.009396  -0.051568  0  3.951361  0
C  C23  1  0.38653134  0.52156089  0.11991253  1  0  -0.065948  0  3.722403  0  0  -0.054686  0  3.963367  0  0  -0.058392  0  3.981732  0  0  -0.009451  -0.051624  0  3.951394  0
C  C24  1  0.74265846  0.45139990  0.75602933  1  0  0.700807  0  3.878966  0  0  0.639679  0  4.186823  0  0  0.673107  0  4.177554  0  0  0.228966  0.616796  0  4.19245  0
C  C25  1  0.25734253  0.54860087  0.24397169  1  0  0.700768  0  3.878988  0  0  0.639643  0  4.186841  0  0  0.673071  0  4.177571  0  0  0.228928  0.616763  0  4.192468  0
O  O26  1  0.17087407  0.06386653  0.66027154  1  0  -0.713501  0  2.047395  0  0  -0.653406  0  2.299158  0  0  -0.67687  0  2.285772  0  0  -0.348753  -0.63655  0  2.308419  0
O  O27  1  0.82912517  0.93613424  0.33972915  1  0  -0.713507  0  2.047399  0  0  -0.653431  0  2.299142  0  0  -0.676885  0  2.285765  0  0  -0.348773  -0.636577  0  2.308411  0
O  O28  1  0.20879963  0.31042278  0.55649427  1  0  -0.723225  0  2.039495  0  0  -0.659551  0  2.280301  0  0  -0.683752  0  2.266434  0  0  -0.329514  -0.643077  0  2.290696  0
O  O29  1  0.79120312  0.68957797  0.44350484  1  0  -0.723228  0  2.039509  0  0  -0.659581  0  2.280283  0  0  -0.683784  0  2.266411  0  0  -0.329505  -0.643108  0  2.290687  0
O  O30  1  0.86745244  0.59955591  0.74931158  1  0  -0.711734  0  2.018269  0  0  -0.650287  0  2.268625  0  0  -0.673819  0  2.257162  0  0  -0.358262  -0.633658  0  2.276196  0
O  O31  1  0.13254992  0.40044339  0.25068826  1  0  -0.711748  0  2.018263  0  0  -0.650307  0  2.268647  0  0  -0.673831  0  2.257192  0  0  -0.358259  -0.633677  0  2.276219  0
O  O32  1  0.72071990  0.27857510  0.66539019  1  0  -0.634761  0  2.02423  0  0  -0.564949  0  2.241946  0  0  -0.590872  0  2.231926  0  0  -0.297475  -0.545817  0  2.248267  0
O  O33  1  0.27928108  0.72142567  0.33461193  1  0  -0.634701  0  2.02428  0  0  -0.564914  0  2.242009  0  0  -0.590838  0  2.231991  0  0  -0.297434  -0.54578  0  2.248328  0
O  O34  1  0.23875385  0.93829368  0.93386335  1  0  -0.889093  0  1.85713  0  0  -0.835878  0  2.05078  0  0  -0.852575  0  2.023142  0  0  -0.601387  -0.824015  0  2.070654  0
O  O35  1  0.76124365  0.06170710  0.06613592  1  0  -0.889067  0  1.857155  0  0  -0.835842  0  2.050801  0  0  -0.852536  0  2.023168  0  0  -0.601356  -0.823977  0  2.070669  0
O  O36  1  0.28520284  0.70385974  0.62188489  1  0  -0.902374  0  1.891345  0  0  -0.839136  0  2.083421  0  0  -0.85931  0  2.050134  0  0  -0.592131  -0.82491  0  2.10792  0
O  O37  1  0.71479815  0.29614103  0.37811612  1  0  -0.902389  0  1.891351  0  0  -0.839153  0  2.08343  0  0  -0.859322  0  2.05015  0  0  -0.592135  -0.824926  0  2.107927  0
O  O38  1  0.72781182  0.95704677  0.74604608  1  0  -0.909624  0  1.887371  0  0  -0.845727  0  2.078802  0  0  -0.865725  0  2.04485  0  0  -0.584759  -0.831243  0  2.102842  0
O  O39  1  0.27218839  0.04295109  0.25395417  1  0  -0.909742  0  1.88733  0  0  -0.845843  0  2.078766  0  0  -0.865837  0  2.044823  0  0  -0.584791  -0.831367  0  2.102823  0
