# generated using pymatgen
data_AlH4C8O5F
_symmetry_space_group_name_H-M   'P 1'
_cell_length_a   6.71604175
_cell_length_b   11.20326218
_cell_length_c   11.13847737
_cell_angle_alpha   76.70671620
_cell_angle_beta   73.02758661
_cell_angle_gamma   71.97475973
_symmetry_Int_Tables_number   1
_chemical_formula_structural   AlH4C8O5F
_chemical_formula_sum   'Al2 H8 C16 O10 F2'
_cell_volume   753.20010060
_cell_formula_units_Z   2
loop_
 _symmetry_equiv_pos_site_id
 _symmetry_equiv_pos_as_xyz
  1  'x, y, z'
loop_
 _atom_site_type_symbol
 _atom_site_label
 _atom_site_symmetry_multiplicity
 _atom_site_fract_x
 _atom_site_fract_y
 _atom_site_fract_z
 _atom_site_occupancy
 _atom_site_pbe_bader_charge
 _atom_site_pbe_bader_spin_density
 _atom_site_pbe_cm5_charge
 _atom_site_pbe_ddec_charge
 _atom_site_pbe_ddec_spin_density
 _atom_site_pbe_ddec_sum_bond_order
 _atom_site_pbe_magmom
Al  Al0  1  0.50095426  0.49912302  0.49899142  1  2.505  0  0.402288  1.641076  0  2.581119  0
Al  Al1  1  0.00395612  0.49608513  0.49605449  1  2.507201  0  0.40108  1.641401  0  2.578816  0
H  H2  1  0.21729808  0.41624203  0.65088657  1  0.631403  0  0.349958  0.429366  0  0.859938  0
H  H3  1  0.71594470  0.65085867  0.41596148  1  0.631658  0  0.349889  0.429263  0  0.85925  0
H  H4  1  0.12253791  0.50932931  0.10914463  1  0.100079  0  0.109732  0.116021  0  1.006473  0
H  H5  1  0.76727705  0.48220456  0.12588340  1  0.106864  0  0.119696  0.146685  0  0.989306  0
H  H6  1  0.25112176  0.50854924  0.87416220  1  0.107924  0  0.105088  0.113143  0  1.038443  0
H  H7  1  0.25868958  0.10868049  0.51063826  1  0.094605  0  0.109759  0.116561  0  1.006062  0
H  H8  1  0.62490946  0.12635658  0.48187185  1  0.153142  0  0.119684  0.147436  0  0.989722  0
H  H9  1  0.36556804  0.87384757  0.50937752  1  0.111112  0  0.10484  0.112965  0  1.038713  0
C  C10  1  0.86767255  0.27167202  0.49830206  1  1.589169  0  0.272021  0.63852  0  4.090155  0
C  C11  1  0.64628206  0.49195451  0.72698784  1  1.602962  0  0.269315  0.663307  0  4.083779  0
C  C12  1  0.13429342  0.72711723  0.49169913  1  1.573521  0  0.268847  0.663481  0  4.086798  0
C  C13  1  0.36306679  0.49800498  0.27160824  1  1.590374  0  0.272199  0.63898  0  4.097312  0
C  C14  1  0.57930324  0.49359286  0.86706909  1  -0.024278  0  -0.017647  -0.150996  0  3.948565  0
C  C15  1  0.43651015  0.49617458  0.13161914  1  -0.042658  0  -0.003725  -0.002587  0  3.973433  0
C  C16  1  0.72099118  0.48600180  0.94135361  1  0.46567  0  0.11202  0.285249  0  4.026901  0
C  C17  1  0.29073313  0.50315204  0.06069683  1  -0.005959  0  -0.08236  -0.105735  0  3.969499  0
C  C18  1  0.65332721  0.48778581  0.07116919  1  0.078635  0  -0.088886  -0.223608  0  3.96561  0
C  C19  1  0.36226614  0.50242437  0.93063609  1  -0.020393  0  -0.078173  -0.068696  0  3.975143  0
C  C20  1  0.05974395  0.86718477  0.49344682  1  -0.004809  0  -0.017604  -0.151737  0  3.949593  0
C  C21  1  0.93570367  0.13165759  0.49659355  1  -0.041016  0  -0.002316  -0.001454  0  3.977216  0
C  C22  1  0.85159131  0.94169175  0.48564307  1  0.423511  0  0.110468  0.284376  0  4.025737  0
C  C23  1  0.14515133  0.06049853  0.50398347  1  0.028419  0  -0.083252  -0.108035  0  3.973246  0
C  C24  1  0.78776974  0.07147074  0.48774802  1  0.00578  0  -0.089567  -0.224879  0  3.966994  0
C  C25  1  0.20428620  0.93047165  0.50294890  1  0.027502  0  -0.076698  -0.065882  0  3.974802  0
O  O26  1  0.67028830  0.32721607  0.50176274  1  -1.263238  0  -0.229343  -0.578177  0  2.352841  0
O  O27  1  0.84215812  0.48808914  0.67117294  1  -1.24981  0  -0.237679  -0.604106  0  2.372583  0
O  O28  1  0.99747394  0.67126118  0.48882635  1  -1.250245  0  -0.237404  -0.603534  0  2.369592  0
O  O29  1  0.50197863  0.50060288  0.32716390  1  -1.262787  0  -0.229747  -0.579346  0  2.355926  0
O  O30  1  0.33195083  0.67441197  0.49259749  1  -1.25382  0  -0.236569  -0.597418  0  2.333269  0
O  O31  1  0.16748029  0.49803581  0.32387074  1  -1.257056  0  -0.22819  -0.576746  0  2.344188  0
O  O32  1  0.01152766  0.32393752  0.49728214  1  -1.253794  0  -0.228647  -0.57706  0  2.339836  0
O  O33  1  0.49988441  0.49377868  0.67426925  1  -1.253837  0  -0.237238  -0.596705  0  2.327982  0
O  O34  1  0.25169130  0.44113300  0.55936617  1  -1.437003  0  -0.448987  -0.987876  0  2.170134  0
O  O35  1  0.74795044  0.55936644  0.44096181  1  -1.435672  0  -0.44962  -0.988188  0  2.168859  0
F  F36  1  0.93451198  0.47557398  0.88805798  1  -0.637162  0  -0.086745  -0.137307  0  1.395586  0
F  F37  1  0.70190104  0.88873986  0.47448067  1  -0.640992  0  -0.086486  -0.137759  0  1.394237  0
