# generated using pymatgen
data_MnH2C4NO5
_symmetry_space_group_name_H-M   'P 1'
_cell_length_a   4.88089625
_cell_length_b   6.63370075
_cell_length_c   8.36053543
_cell_angle_alpha   88.02488180
_cell_angle_beta   103.30673185
_cell_angle_gamma   102.66857135
_symmetry_Int_Tables_number   1
_chemical_formula_structural   MnH2C4NO5
_chemical_formula_sum   'Mn2 H4 C8 N2 O10'
_cell_volume   256.98315355
_cell_formula_units_Z   2
loop_
 _symmetry_equiv_pos_site_id
 _symmetry_equiv_pos_as_xyz
  1  'x, y, z'
loop_
 _atom_site_type_symbol
 _atom_site_label
 _atom_site_symmetry_multiplicity
 _atom_site_fract_x
 _atom_site_fract_y
 _atom_site_fract_z
 _atom_site_occupancy
 _atom_site_pbe_cm5_charge
 _atom_site_pbe_ddec_charge
 _atom_site_pbe_ddec_spin_density
 _atom_site_pbe_ddec_sum_bond_order
 _atom_site_pbe_magmom
Mn  Mn0  1  0.50000435  0.99999614  0.50000531  1  0.625354  0.932923  4.646282  2.292704  4.443
Mn  Mn1  1  0.00000525  0.50000324  0.99999602  1  0.629665  1.154156  4.633877  2.182319  4.45
H  H2  1  0.26895509  0.86927687  0.84953156  1  0.304293  0.401191  0.000857  0.928036  0.003
H  H3  1  0.73104043  0.13072217  0.15046739  1  0.304252  0.401138  0.000857  0.928121  0.003
H  H4  1  0.50074411  0.77487724  0.98198421  1  0.304693  0.392981  0.000557  0.942168  0.002
H  H5  1  0.49925309  0.22512030  0.01801378  1  0.304658  0.392958  0.000557  0.942195  0.002
C  C6  1  0.09710529  0.36681229  0.61447672  1  0.14984  0.086201  0.006644  3.904283  0.004
C  C7  1  0.90289278  0.63318828  0.38552375  1  0.14984  0.086229  0.006644  3.904291  0.004
C  C8  1  0.42836037  0.36718290  0.30603850  1  0.225028  0.551524  0.022412  4.229604  0.02
C  C9  1  0.57163938  0.63281617  0.69396103  1  0.225024  0.551457  0.022416  4.229679  0.02
C  C10  1  0.73212012  0.43791145  0.40503990  1  0.127677  0.039042  0.016233  3.936015  0.012
C  C11  1  0.26787839  0.56209066  0.59496062  1  0.12768  0.039083  0.016234  3.935962  0.012
C  C12  1  0.19968932  0.22081586  0.74604962  1  0.243066  0.588176  0.01067  4.189561  0.01
C  C13  1  0.80031086  0.77918472  0.25395114  1  0.243029  0.588122  0.010668  4.189682  0.01
N  N14  1  0.83162589  0.30665104  0.51896256  1  -0.280158  -0.226905  0.043153  3.446831  0.027
N  N15  1  0.16837263  0.69335111  0.48103677  1  -0.280166  -0.226905  0.043154  3.446852  0.027
O  O16  1  0.32405329  0.49939594  0.21260282  1  -0.289243  -0.538813  0.042738  2.400675  0.024
O  O17  1  0.67594224  0.50060310  0.78739613  1  -0.289269  -0.538802  0.04274  2.40078  0.024
O  O18  1  0.29485621  0.18509383  0.32788338  1  -0.296081  -0.49963  0.046675  2.319473  0.033
O  O19  1  0.70514610  0.81490680  0.67211648  1  -0.296081  -0.49962  0.046682  2.319533  0.033
O  O20  1  0.29618649  0.07314428  0.70408803  1  -0.278401  -0.531595  0.041864  2.328211  0.03
O  O21  1  0.70381070  0.92685323  0.29591117  1  -0.278359  -0.531535  0.041863  2.328339  0.03
O  O22  1  0.17212680  0.25230585  0.88965801  1  -0.273862  -0.529122  0.041846  2.269197  0.031
O  O23  1  0.82787461  0.74769169  0.11034175  1  -0.273874  -0.529142  0.041845  2.269145  0.031
O  O24  1  0.29580991  0.74923968  0.92109361  1  -0.564339  -0.776597  0.043993  2.172541  0.027
O  O25  1  0.70418560  0.25075932  0.07890653  1  -0.564266  -0.776515  0.043984  2.1725  0.027
