# generated using pymatgen
data_CuH8C14(N3O)2
_symmetry_space_group_name_H-M   'P 1'
_cell_length_a   4.22520772
_cell_length_b   6.94162061
_cell_length_c   11.38156341
_cell_angle_alpha   91.76636596
_cell_angle_beta   89.73950027
_cell_angle_gamma   101.34048001
_symmetry_Int_Tables_number   1
_chemical_formula_structural   CuH8C14(N3O)2
_chemical_formula_sum   'Cu1 H8 C14 N6 O2'
_cell_volume   327.14545082
_cell_formula_units_Z   1
loop_
 _symmetry_equiv_pos_site_id
 _symmetry_equiv_pos_as_xyz
  1  'x, y, z'
loop_
 _atom_site_type_symbol
 _atom_site_label
 _atom_site_symmetry_multiplicity
 _atom_site_fract_x
 _atom_site_fract_y
 _atom_site_fract_z
 _atom_site_occupancy
 _atom_site_hle17_ddec_charge
 _atom_site_hle17_ddec_spin_density
 _atom_site_hle17_ddec_sum_bond_order
 _atom_site_hle17_magmom
 _atom_site_hse06_10hf_ddec_charge
 _atom_site_hse06_10hf_ddec_spin_density
 _atom_site_hse06_10hf_ddec_sum_bond_order
 _atom_site_hse06_10hf_magmom
 _atom_site_hse06_ddec_charge
 _atom_site_hse06_ddec_spin_density
 _atom_site_hse06_ddec_sum_bond_order
 _atom_site_hse06_magmom
 _atom_site_pbe_cm5_charge
 _atom_site_pbe_ddec_charge
 _atom_site_pbe_ddec_spin_density
 _atom_site_pbe_ddec_sum_bond_order
 _atom_site_pbe_magmom
Cu  Cu0  1  0.00001410  0.49999603  0.49999882  1  0.627119  -0.57886  1.875908  -0.393  0.552307  -0.672007  2.288215  -0.498  0.643979  -0.765724  2.223064  -0.602  0.722212  0.507635  -0.614455  2.330373  -0.439
H  H1  1  0.88354079  0.95001913  0.08107691  1  0.09895  -0.000264  0.944889  0.0  0.109334  -6.8e-05  1.004572  0.0  0.111616  4e-06  1.002068  0.0  0.110606  0.107642  -0.000131  1.006459  0.0
H  H2  1  0.11645165  0.04998272  0.91892321  1  0.098856  -0.000264  0.944927  0.0  0.10923  -6.8e-05  1.00463  0.0  0.111511  4e-06  1.002126  0.0  0.11055  0.107538  -0.000131  1.006516  0.0
H  H3  1  0.69567190  0.07000541  0.27549324  1  0.108291  -0.001148  0.986805  -0.001  0.110298  -0.00109  1.061055  -0.001  0.114457  -0.000732  1.060391  0.0  0.100355  0.10739  -0.00139  1.061607  -0.001
H  H4  1  0.30432010  0.92998763  0.72450675  1  0.108244  -0.001146  0.986883  -0.001  0.110251  -0.00109  1.061129  -0.001  0.114408  -0.000731  1.060468  0.0  0.100339  0.107343  -0.00139  1.061682  -0.001
H  H5  1  0.74794379  0.87775654  0.45410819  1  0.089423  -0.000829  0.974456  -0.002  0.096991  -0.000944  1.038208  -0.002  0.100523  -0.000624  1.035005  -0.002  0.118368  0.094285  -0.001267  1.040628  -0.003
H  H6  1  0.25205680  0.12224090  0.54588925  1  0.089462  -0.000828  0.974507  -0.002  0.096993  -0.000944  1.038294  -0.002  0.100524  -0.000623  1.035093  -0.002  0.118385  0.094289  -0.001266  1.040706  -0.003
H  H7  1  0.14782401  0.65724024  0.07620515  1  0.119458  -0.000569  0.962019  -0.001  0.1262  -0.000461  1.027951  0.0  0.129752  -0.000357  1.026735  0.0  0.108005  0.123719  -0.00053  1.028893  -0.001
H  H8  1  0.85218507  0.34276896  0.92379248  1  0.119435  -0.00057  0.962058  -0.001  0.126167  -0.00046  1.028  0.0  0.129718  -0.000357  1.026787  0.0  0.108022  0.123687  -0.00053  1.028942  -0.001
C  C9  1  0.24459953  0.44843972  0.27136338  1  0.003557  0.024034  3.8227  0.01  -0.009861  0.002938  4.085923  -0.003  -0.012716  0.009786  4.103095  0.002  0.092955  -0.007739  -0.001684  4.07518  -0.007
C  C10  1  0.75540363  0.55156660  0.72864210  1  0.003541  0.024121  3.82297  0.01  -0.009885  0.002971  4.086205  -0.003  -0.012787  0.009766  4.103437  0.002  0.093025  -0.007678  -0.001684  4.075344  -0.007
C  C11  1  0.08224010  0.61397439  0.26276029  1  0.184612  -0.00046  3.831699  -0.002  0.182005  0.000468  4.074363  0.0  0.191429  0.00087  4.097856  0.0  0.115085  0.17646  5.6e-05  4.058574  -0.001
C  C12  1  0.91777498  0.38603193  0.73724259  1  0.184537  -0.000482  3.831576  -0.002  0.181916  0.000478  4.074255  0.0  0.191351  0.000873  4.09775  0.0  0.115048  0.176339  5.4e-05  4.058458  -0.001
C  C13  1  0.91309566  0.87442564  0.16140139  1  0.019324  0.004867  3.695773  0.003  0.00383  0.003548  3.941713  0.002  0.010725  0.00371  3.957308  0.002  -0.057722  -0.000177  0.003293  3.930496  0.002
C  C14  1  0.08689416  0.12556001  0.83859321  1  0.019246  0.004854  3.69581  0.003  0.003735  0.003552  3.941796  0.002  0.010629  0.003705  3.957401  0.002  -0.057788  -0.000271  0.003294  3.930578  0.002
C  C15  1  0.80683443  0.94143010  0.26834839  1  -0.114013  -0.002371  3.699367  -0.004  -0.130888  -0.003819  3.953758  -0.005  -0.138896  -0.002565  3.972429  -0.004  -0.089095  -0.125811  -0.004688  3.940848  -0.006
C  C16  1  0.19316577  0.05856584  0.73164639  1  -0.113843  -0.002361  3.699347  -0.004  -0.1307  -0.003806  3.95372  -0.005  -0.138707  -0.002568  3.972389  -0.004  -0.089024  -0.125626  -0.004687  3.94081  -0.006
C  C17  1  0.83826770  0.83750284  0.36880624  1  0.144719  0.004865  3.662818  0.003  0.111415  0.001082  3.921904  0.0  0.122325  0.002769  3.936687  0.002  0.045186  0.10492  -0.000245  3.912349  -0.001
C  C18  1  0.16172438  0.16249752  0.63119033  1  0.144564  0.004859  3.662977  0.003  0.111257  0.001074  3.922092  0.0  0.12217  0.002775  3.936867  0.002  0.045108  0.104762  -0.000242  3.912534  -0.001
C  C19  1  0.05441514  0.70946770  0.15804676  1  -0.144227  0.002834  3.69211  0.001  -0.163193  -0.000807  3.935705  -0.002  -0.172533  -3e-06  3.956847  -0.001  -0.079646  -0.15699  -0.00136  3.92093  -0.002
C  C20  1  0.94558876  0.29052534  0.84195150  1  -0.144031  0.002859  3.692086  0.001  -0.162966  -0.000825  3.935644  -0.002  -0.172303  -6e-06  3.95678  -0.001  -0.079554  -0.156762  -0.00136  3.920876  -0.002
C  C21  1  0.37797845  0.36399847  0.17292452  1  0.268048  -0.008823  3.756047  -0.01  0.250281  -0.002803  4.039314  -0.003  0.264066  -0.002353  4.053816  -0.003  0.188079  0.241002  -0.003185  4.029346  -0.003
C  C22  1  0.62202958  0.63600049  0.82707735  1  0.268195  -0.008853  3.755923  -0.01  0.250418  -0.002795  4.039202  -0.003  0.26422  -0.002356  4.053714  -0.003  0.188101  0.241111  -0.003185  4.029211  -0.003
N  N23  1  0.28177195  0.38646712  0.37956586  1  -0.014207  -0.096391  3.410979  -0.111  0.017869  -0.066609  3.741308  -0.084  0.011973  -0.05821  3.758926  -0.081  -0.209139  0.016549  -0.069406  3.734189  -0.083
N  N24  1  0.71822691  0.61354068  0.62044051  1  -0.014233  -0.096443  3.411085  -0.111  0.017896  -0.066628  3.741365  -0.084  0.012017  -0.058203  3.758999  -0.081  -0.209094  0.016553  -0.069415  3.734217  -0.083
N  N25  1  0.96979426  0.67647155  0.36618131  1  -0.33947  -0.060834  3.333004  -0.073  -0.286365  -0.052424  3.628129  -0.067  -0.316273  -0.046397  3.647512  -0.065  -0.356985  -0.270817  -0.054111  3.618176  -0.066
N  N26  1  0.03020909  0.32353473  0.63381802  1  -0.339424  -0.060825  3.333114  -0.073  -0.286273  -0.052425  3.628176  -0.067  -0.316202  -0.046401  3.647599  -0.065  -0.356951  -0.27072  -0.054109  3.618224  -0.066
N  N27  1  0.48482382  0.28766855  0.09319160  1  -0.373083  0.018914  2.551725  0.013  -0.347055  0.004388  2.773744  0.002  -0.358959  0.006591  2.785775  0.004  -0.285119  -0.339241  0.002501  2.765709  0.001
N  N28  1  0.51517217  0.71233044  0.90681639  1  -0.373214  0.018971  2.551537  0.014  -0.347191  0.004371  2.773565  0.002  -0.359097  0.00659  2.785591  0.004  -0.285148  -0.339374  0.002499  2.765538  0.001
O  O29  1  0.46026057  0.26222983  0.39827365  1  -0.364936  -0.094414  1.885157  -0.112  -0.34701  -0.047393  2.142162  -0.062  -0.379463  -0.029622  2.152572  -0.042  -0.16207  -0.32501  -0.060624  2.136622  -0.075
O  O30  1  0.53974851  0.73777938  0.60172398  1  -0.364901  -0.094445  1.885108  -0.112  -0.347007  -0.047401  2.142056  -0.062  -0.379456  -0.02961  2.152458  -0.042  -0.162094  -0.325009  -0.060625  2.136527  -0.075
