# generated using pymatgen
data_MoH6C6N4O3
_symmetry_space_group_name_H-M   'P 1'
_cell_length_a   3.86497850
_cell_length_b   8.94819335
_cell_length_c   14.48880826
_cell_angle_alpha   90.00118346
_cell_angle_beta   89.99950768
_cell_angle_gamma   101.59506244
_symmetry_Int_Tables_number   1
_chemical_formula_structural   MoH6C6N4O3
_chemical_formula_sum   'Mo2 H12 C12 N8 O6'
_cell_volume   490.86333186
_cell_formula_units_Z   2
loop_
 _symmetry_equiv_pos_site_id
 _symmetry_equiv_pos_as_xyz
  1  'x, y, z'
loop_
 _atom_site_type_symbol
 _atom_site_label
 _atom_site_symmetry_multiplicity
 _atom_site_fract_x
 _atom_site_fract_y
 _atom_site_fract_z
 _atom_site_occupancy
 _atom_site_hle17_bader_spin_density
 _atom_site_hle17_ddec_charge
 _atom_site_hle17_ddec_spin_density
 _atom_site_hle17_ddec_sum_bond_order
 _atom_site_hle17_magmom
 _atom_site_hse06_10hf_bader_spin_density
 _atom_site_hse06_10hf_ddec_charge
 _atom_site_hse06_10hf_ddec_spin_density
 _atom_site_hse06_10hf_ddec_sum_bond_order
 _atom_site_hse06_10hf_magmom
 _atom_site_hse06_bader_spin_density
 _atom_site_hse06_ddec_charge
 _atom_site_hse06_ddec_spin_density
 _atom_site_hse06_ddec_sum_bond_order
 _atom_site_hse06_magmom
 _atom_site_pbe_bader_spin_density
 _atom_site_pbe_cm5_charge
 _atom_site_pbe_ddec_charge
 _atom_site_pbe_ddec_spin_density
 _atom_site_pbe_ddec_sum_bond_order
 _atom_site_pbe_magmom
Mo  Mo0  1  0.34120940  0.00163569  0.30590540  1  0  2.107552  0  4.22475  0  0  2.099041  0  4.775929  0  0  2.198293  0  4.746955  0  0  1.548975  2.025575  0  4.804425  0
Mo  Mo1  1  0.65878748  0.99836495  0.80590829  1  0  2.107664  0  4.224617  0  0  2.099159  0  4.775768  0  0  2.198403  0  4.746812  0  0  1.549026  2.025712  0  4.804243  0
H  H2  1  0.49895474  0.38793258  0.40063595  1  0  0.105503  0  0.940478  0  0  0.117317  0  0.996134  0  0  0.120003  0  0.994612  0  0  0.123981  0.115404  0  0.997297  0
H  H3  1  0.50105777  0.61206421  0.90063500  1  0  0.105634  0  0.940423  0  0  0.117428  0  0.996093  0  0  0.120116  0  0.994565  0  0  0.123997  0.115516  0  0.997262  0
H  H4  1  0.89956493  0.38725280  0.89391486  1  0  0.107068  0  0.936996  0  0  0.118715  0  0.992581  0  0  0.121603  0  0.990741  0  0  0.124327  0.116657  0  0.993968  0
H  H5  1  0.10043642  0.61274724  0.39390640  1  0  0.107074  0  0.936924  0  0  0.118726  0  0.992537  0  0  0.12161  0  0.990698  0  0  0.124329  0.116664  0  0.993921  0
H  H6  1  0.28129888  0.42924226  0.58150847  1  0  0.101272  0  0.96722  0  0  0.113563  0  1.024045  0  0  0.116499  0  1.022275  0  0  0.122786  0.111418  0  1.025442  0
H  H7  1  0.71873402  0.57076362  0.08150502  1  0  0.101228  0  0.967429  0  0  0.113516  0  1.024255  0  0  0.116451  0  1.022485  0  0  0.122699  0.111371  0  1.025639  0
H  H8  1  0.16759130  0.43292496  0.07323010  1  0  0.098844  0  0.975055  0  0  0.110318  0  1.034104  0  0  0.113045  0  1.032706  0  0  0.121354  0.108359  0  1.035199  0
H  H9  1  0.83243642  0.56707496  0.57322302  1  0  0.0989  0  0.975004  0  0  0.110351  0  1.034074  0  0  0.113077  0  1.032675  0  0  0.121344  0.108396  0  1.035172  0
H  H10  1  0.03413693  0.16641585  0.64390973  1  0  0.333112  0  0.926709  0  0  0.31428  0  0.987638  0  0  0.324773  0  0.978483  0  0  0.304578  0.306816  0  0.994234  0
H  H11  1  0.96586694  0.83359327  0.14391320  1  0  0.333014  0  0.926835  0  0  0.314225  0  0.987703  0  0  0.32472  0  0.978543  0  0  0.304544  0.306756  0  0.994298  0
H  H12  1  0.13797329  0.17064468  0.14133415  1  0  0.333426  0  0.926914  0  0  0.314931  0  0.987579  0  0  0.325424  0  0.978311  0  0  0.303661  0.307506  0  0.994143  0
H  H13  1  0.86202734  0.82935751  0.64133031  1  0  0.333453  0  0.926999  0  0  0.314964  0  0.987647  0  0  0.325455  0  0.978383  0  0  0.303658  0.307539  0  0.994218  0
C  C14  1  0.19161577  0.08087310  0.51321918  1  0  0.275314  0  3.767665  0  0  0.24427  0  4.040902  0  0  0.25791  0  4.052132  0  0  0.221235  0.23523  0  4.032892  0
C  C15  1  0.80837486  0.91912614  0.01322131  1  0  0.275339  0  3.767509  0  0  0.244189  0  4.040873  0  0  0.25783  0  4.052108  0  0  0.221205  0.235146  0  4.032857  0
C  C16  1  0.89147399  0.08299666  0.01197292  1  0  0.275077  0  3.767704  0  0  0.242162  0  4.043666  0  0  0.255675  0  4.054937  0  0  0.219749  0.233158  0  4.035657  0
C  C17  1  0.10851424  0.91700826  0.51196357  1  0  0.275039  0  3.767836  0  0  0.242093  0  4.043844  0  0  0.255611  0  4.055117  0  0  0.219612  0.233088  0  4.035831  0
C  C18  1  0.38840614  0.30516024  0.45274128  1  0  0.021357  0  3.734393  0  0  -0.012066  0  4.008878  0  0  -0.008841  0  4.027464  0  0  0.008023  -0.014289  0  3.995977  0
C  C19  1  0.61158897  0.69484171  0.95274045  1  0  0.021206  0  3.734574  0  0  -0.012215  0  4.009036  0  0  -0.008987  0  4.027623  0  0  0.007974  -0.014448  0  3.996148  0
C  C20  1  0.92553519  0.30581631  0.94755848  1  0  0.019283  0  3.735913  0  0  -0.014175  0  4.010701  0  0  -0.011013  0  4.029134  0  0  0.007957  -0.016364  0  3.997957  0
C  C21  1  0.07446150  0.69418319  0.44755111  1  0  0.019325  0  3.735947  0  0  -0.014132  0  4.010762  0  0  -0.010966  0  4.029197  0  0  0.007994  -0.016315  0  3.998006  0
C  C22  1  0.28116287  0.32688368  0.54177026  1  0  -0.010906  0  3.696605  0  0  -0.052595  0  3.963549  0  0  -0.051272  0  3.982255  0  0  0.005054  -0.05337  0  3.951016  0
C  C23  1  0.71885032  0.67311070  0.04176465  1  0  -0.010822  0  3.696577  0  0  -0.052509  0  3.963504  0  0  -0.051187  0  3.982212  0  0  0.005176  -0.053278  0  3.950954  0
C  C24  1  0.05979794  0.32945501  0.03580827  1  0  -0.009234  0  3.695603  0  0  -0.050251  0  3.961687  0  0  -0.049063  0  3.980645  0  0  0.00453  -0.050989  0  3.948929  0
C  C25  1  0.94021239  0.67054376  0.53579743  1  0  -0.009267  0  3.695803  0  0  -0.050272  0  3.961899  0  0  -0.049079  0  3.980854  0  0  0.004508  -0.05102  0  3.949153  0
N  N26  1  0.33203039  0.15150667  0.43592326  1  0  -0.414867  0  3.233187  0  0  -0.373635  0  3.50861  0  0  -0.392698  0  3.528048  0  0  -0.361045  -0.35984  0  3.495048  0
N  N27  1  0.66796024  0.84849019  0.93592562  1  0  -0.414838  0  3.233211  0  0  -0.37356  0  3.508637  0  0  -0.392635  0  3.528089  0  0  -0.361056  -0.359772  0  3.495081  0
N  N28  1  0.81998639  0.15196976  0.93375732  1  0  -0.413488  0  3.236852  0  0  -0.372164  0  3.512902  0  0  -0.391239  0  3.532592  0  0  -0.360175  -0.358375  0  3.499204  0
N  N29  1  0.17998675  0.84802822  0.43374958  1  0  -0.413384  0  3.237052  0  0  -0.372089  0  3.513167  0  0  -0.391177  0  3.532876  0  0  -0.360138  -0.358294  0  3.499457  0
N  N30  1  0.15748104  0.18461504  0.57867453  1  0  -0.287956  0  3.38172  0  0  -0.221142  0  3.603903  0  0  -0.236157  0  3.616074  0  0  -0.359416  -0.211176  0  3.595922  0
N  N31  1  0.84252184  0.81538741  0.07867666  1  0  -0.287964  0  3.381474  0  0  -0.221142  0  3.603658  0  0  -0.236153  0  3.615821  0  0  -0.359407  -0.211174  0  3.595668  0
N  N32  1  0.03690333  0.18803821  0.07529719  1  0  -0.288229  0  3.375852  0  0  -0.221456  0  3.598147  0  0  -0.236253  0  3.609994  0  0  -0.3581  -0.211593  0  3.590236  0
N  N33  1  0.96308450  0.81195961  0.57529430  1  0  -0.288376  0  3.375743  0  0  -0.22161  0  3.598074  0  0  -0.236412  0  3.609917  0  0  -0.358051  -0.211748  0  3.590178  0
O  O34  1  0.79297454  0.00196146  0.32780043  1  0  -0.868362  0  1.85614  0  0  -0.874255  0  2.162982  0  0  -0.917332  0  2.163064  0  0  -0.578152  -0.842841  0  2.163959  0
O  O35  1  0.20701458  0.99803534  0.82780361  1  0  -0.868428  0  1.856085  0  0  -0.874341  0  2.162954  0  0  -0.917416  0  2.163039  0  0  -0.578186  -0.842924  0  2.163922  0
O  O36  1  0.35818470  0.16140412  0.23497647  1  0  -0.742751  0  1.486017  0  0  -0.741732  0  1.724252  0  0  -0.769908  0  1.713532  0  0  -0.550049  -0.721012  0  1.7326  0
O  O37  1  0.64181294  0.83859310  0.73497462  1  0  -0.742815  0  1.48599  0  0  -0.741795  0  1.724206  0  0  -0.769971  0  1.713492  0  0  -0.550088  -0.721071  0  1.73255  0
O  O38  1  0.78950585  0.15793769  0.73477830  1  0  -0.742006  0  1.491482  0  0  -0.741055  0  1.731377  0  0  -0.769366  0  1.721001  0  0  -0.549196  -0.720207  0  1.739478  0
O  O39  1  0.21048866  0.84205839  0.23477455  1  0  -0.741991  0  1.491544  0  0  -0.741058  0  1.731436  0  0  -0.769373  0  1.721055  0  0  -0.549216  -0.720211  0  1.739538  0
