# generated using pymatgen
data_Cu2H4C4S(IN)2
_symmetry_space_group_name_H-M   'P 1'
_cell_length_a   7.12299715
_cell_length_b   7.93174330
_cell_length_c   8.70473337
_cell_angle_alpha   98.31989910
_cell_angle_beta   101.17233269
_cell_angle_gamma   110.02045237
_symmetry_Int_Tables_number   1
_chemical_formula_structural   Cu2H4C4S(IN)2
_chemical_formula_sum   'Cu4 H8 C8 S2 I4 N4'
_cell_volume   441.28138801
_cell_formula_units_Z   2
loop_
 _symmetry_equiv_pos_site_id
 _symmetry_equiv_pos_as_xyz
  1  'x, y, z'
loop_
 _atom_site_type_symbol
 _atom_site_label
 _atom_site_symmetry_multiplicity
 _atom_site_fract_x
 _atom_site_fract_y
 _atom_site_fract_z
 _atom_site_occupancy
 _atom_site_hle17_bader_spin_density
 _atom_site_hle17_ddec_charge
 _atom_site_hle17_ddec_spin_density
 _atom_site_hle17_ddec_sum_bond_order
 _atom_site_hle17_magmom
 _atom_site_hse06_10hf_bader_spin_density
 _atom_site_hse06_10hf_ddec_charge
 _atom_site_hse06_10hf_ddec_spin_density
 _atom_site_hse06_10hf_ddec_sum_bond_order
 _atom_site_hse06_10hf_magmom
 _atom_site_hse06_bader_spin_density
 _atom_site_hse06_ddec_charge
 _atom_site_hse06_ddec_spin_density
 _atom_site_hse06_ddec_sum_bond_order
 _atom_site_hse06_magmom
 _atom_site_pbe_bader_spin_density
 _atom_site_pbe_cm5_charge
 _atom_site_pbe_ddec_charge
 _atom_site_pbe_ddec_spin_density
 _atom_site_pbe_ddec_sum_bond_order
 _atom_site_pbe_magmom
Cu  Cu0  1  0.33583261  0.91585892  0.88478414  1  0  0.243905  0  2.142882  0  0  0.168188  0  2.601252  0  0  0.185032  0  2.542459  0  0  0.240046  0.159316  0  2.638839  0
Cu  Cu1  1  0.66416360  0.08414460  0.11521311  1  0  0.244016  0  2.142754  0  0  0.168316  0  2.601119  0  0  0.185054  0  2.542333  0  0  0.240117  0.159455  0  2.638708  0
Cu  Cu2  1  0.40228676  0.27215473  0.95390748  1  0  0.232602  0  2.402315  0  0  0.197379  0  2.867877  0  0  0.201868  0  2.819586  0  0  0.226318  0.196925  0  2.898224  0
Cu  Cu3  1  0.59771128  0.72784322  0.04608474  1  0  0.232659  0  2.402009  0  0  0.197398  0  2.867595  0  0  0.201906  0  2.819294  0  0  0.226308  0.196937  0  2.897969  0
H  H4  1  0.95226744  0.78681457  0.62554018  1  0  0.074189  0  1.002295  0  0  0.081487  0  1.070366  0  0  0.085616  0  1.064577  0  0  0.085709  0.078103  0  1.074826  0
H  H5  1  0.04773651  0.21319029  0.37445843  1  0  0.074158  0  1.002235  0  0  0.081436  0  1.070331  0  0  0.085581  0  1.064524  0  0  0.085682  0.078055  0  1.074787  0
H  H6  1  0.65869725  0.48738325  0.47637925  1  0  0.129819  0  0.944998  0  0  0.136148  0  1.009645  0  0  0.14075  0  1.008285  0  0  0.105913  0.132752  0  1.010978  0
H  H7  1  0.34132331  0.51261727  0.52361099  1  0  0.129848  0  0.945058  0  0  0.136166  0  1.009738  0  0  0.140761  0  1.008401  0  0  0.105983  0.13279  0  1.011019  0
H  H8  1  0.68265171  0.19330987  0.55369222  1  0  0.09381  0  0.966823  0  0  0.099066  0  1.036783  0  0  0.103453  0  1.031046  0  0  0.106755  0.095768  0  1.040765  0
H  H9  1  0.31734378  0.80668537  0.44630500  1  0  0.093906  0  0.966805  0  0  0.099091  0  1.036852  0  0  0.103478  0  1.031112  0  0  0.106769  0.095789  0  1.040832  0
H  H10  1  0.95922433  0.22892175  0.76610985  1  0  0.29442  0  0.901268  0  0  0.273363  0  0.971489  0  0  0.283751  0  0.962215  0  0  0.290931  0.265685  0  0.978508  0
H  H11  1  0.04076941  0.77107228  0.23390878  1  0  0.29446  0  0.901373  0  0  0.273301  0  0.971611  0  0  0.283683  0  0.962358  0  0  0.291042  0.265624  0  0.978636  0
C  C12  1  0.94406078  0.65738855  0.65849075  1  0  0.200894  0  3.6424  0  0  0.16123  0  3.895223  0  0  0.180356  0  3.90266  0  0  0.049966  0.147875  0  3.891507  0
C  C13  1  0.05597393  0.34262153  0.34149943  1  0  0.200898  0  3.64228  0  0  0.161303  0  3.895065  0  0  0.180421  0  3.902491  0  0  0.05002  0.147938  0  3.891352  0
C  C14  1  0.78246601  0.49152122  0.57395857  1  0  -0.188966  0  3.694735  0  0  -0.201629  0  3.957313  0  0  -0.214782  0  3.972218  0  0  -0.097516  -0.193836  0  3.949208  0
C  C15  1  0.21753566  0.50846846  0.42604118  1  0  -0.188884  0  3.695229  0  0  -0.201588  0  3.957813  0  0  -0.214752  0  3.972718  0  0  -0.097598  -0.19379  0  3.949715  0
C  C16  1  0.79198674  0.33230055  0.61417388  1  0  0.210158  0  3.621512  0  0  0.164413  0  3.875894  0  0  0.183381  0  3.882196  0  0  0.066464  0.150919  0  3.873186  0
C  C17  1  0.20801325  0.66769190  0.38582367  1  0  0.210026  0  3.621285  0  0  0.164312  0  3.875654  0  0  0.183305  0  3.881928  0  0  0.066465  0.150808  0  3.872954  0
C  C18  1  0.10102286  0.51212986  0.82478901  1  0  0.408756  0  3.706206  0  0  0.378441  0  3.980301  0  0  0.402798  0  3.992246  0  0  0.227835  0.362296  0  3.971872  0
C  C19  1  0.89898400  0.48786819  0.17522524  1  0  0.408715  0  3.706557  0  0  0.378685  0  3.980207  0  0  0.403034  0  3.992154  0  0  0.228021  0.362548  0  3.971772  0
S  S20  1  0.27115904  0.50996405  0.99007031  1  0  -0.311751  0  2.670234  0  0  -0.308827  0  3.126649  0  0  -0.319173  0  3.103199  0  0  -0.2143  -0.303058  0  3.142626  0
S  S21  1  0.72882791  0.49003126  0.00992792  1  0  -0.311876  0  2.669977  0  0  -0.309056  0  3.126259  0  0  -0.319396  0  3.102794  0  0  -0.214458  -0.303281  0  3.142236  0
I  I22  1  0.30088387  0.07982638  0.16331895  1  0  -0.316633  0  1.767659  0  0  -0.277568  0  2.221951  0  0  -0.2959  0  2.182221  0  0  -0.163278  -0.264427  0  2.245346  0
I  I23  1  0.69912278  0.92017837  0.83666857  1  0  -0.316701  0  1.767538  0  0  -0.277629  0  2.221856  0  0  -0.29597  0  2.18214  0  0  -0.163297  -0.264492  0  2.245254  0
I  I24  1  0.27677950  0.11861961  0.65304136  1  0  -0.424478  0  1.541918  0  0  -0.377725  0  1.945385  0  0  -0.402499  0  1.916553  0  0  -0.210634  -0.359417  0  1.961091  0
I  I25  1  0.72322724  0.88138809  0.34697068  1  0  -0.424563  0  1.541769  0  0  -0.377779  0  1.945122  0  0  -0.402537  0  1.916279  0  0  -0.210637  -0.359464  0  1.960839  0
N  N26  1  0.10182928  0.66941751  0.77902538  1  0  -0.337381  0  3.263817  0  0  -0.26097  0  3.546986  0  0  -0.281586  0  3.551717  0  0  -0.353822  -0.248371  0  3.544479  0
N  N27  1  0.89814805  0.33058201  0.22097193  1  0  -0.337458  0  3.263791  0  0  -0.261171  0  3.546887  0  0  -0.281748  0  3.551562  0  0  -0.353939  -0.248573  0  3.54438  0
N  N28  1  0.95102448  0.34697699  0.73496222  1  0  -0.30933  0  3.458257  0  0  -0.232979  0  3.673133  0  0  -0.253027  0  3.683776  0  0  -0.360404  -0.220524  0  3.66688  0
N  N29  1  0.04894435  0.65301579  0.26504900  1  0  -0.309218  0  3.45838  0  0  -0.232803  0  3.673257  0  0  -0.252858  0  3.683898  0  0  -0.360461  -0.220349  0  3.667011  0
