# generated using pymatgen
data_HgH5C4S2N3
_symmetry_space_group_name_H-M   'P 1'
_cell_length_a   5.79696571
_cell_length_b   7.41765070
_cell_length_c   9.66317680
_cell_angle_alpha   94.34933463
_cell_angle_beta   81.64374362
_cell_angle_gamma   78.33190232
_symmetry_Int_Tables_number   1
_chemical_formula_structural   HgH5C4S2N3
_chemical_formula_sum   'Hg2 H10 C8 S4 N6'
_cell_volume   400.22748999
_cell_formula_units_Z   2
loop_
 _symmetry_equiv_pos_site_id
 _symmetry_equiv_pos_as_xyz
  1  'x, y, z'
loop_
 _atom_site_type_symbol
 _atom_site_label
 _atom_site_symmetry_multiplicity
 _atom_site_fract_x
 _atom_site_fract_y
 _atom_site_fract_z
 _atom_site_occupancy
 _atom_site_hle17_bader_spin_density
 _atom_site_hle17_ddec_charge
 _atom_site_hle17_ddec_spin_density
 _atom_site_hle17_ddec_sum_bond_order
 _atom_site_hle17_magmom
 _atom_site_hse06_10hf_bader_spin_density
 _atom_site_hse06_10hf_ddec_charge
 _atom_site_hse06_10hf_ddec_spin_density
 _atom_site_hse06_10hf_ddec_sum_bond_order
 _atom_site_hse06_10hf_magmom
 _atom_site_hse06_bader_spin_density
 _atom_site_hse06_ddec_charge
 _atom_site_hse06_ddec_spin_density
 _atom_site_hse06_ddec_sum_bond_order
 _atom_site_hse06_magmom
 _atom_site_pbe_bader_spin_density
 _atom_site_pbe_cm5_charge
 _atom_site_pbe_ddec_charge
 _atom_site_pbe_ddec_spin_density
 _atom_site_pbe_ddec_sum_bond_order
 _atom_site_pbe_magmom
Hg  Hg0  1  0.18296549  0.67342821  0.16724507  1  0  0.64108  0  2.084418  0  0  0.496565  0  2.56889  0  0  0.535958  0  2.547402  0  0  0.528839  0.47005  0  2.581522  0
Hg  Hg1  1  0.81702215  0.32657411  0.83275302  1  0  0.64099  0  2.083884  0  0  0.496438  0  2.568323  0  0  0.535856  0  2.546833  0  0  0.52882  0.469917  0  2.580946  0
H  H2  1  0.91000338  0.77126785  0.42158725  1  0  0.259732  0  0.922858  0  0  0.254037  0  0.971679  0  0  0.259684  0  0.968528  0  0  0.290926  0.250381  0  0.973461  0
H  H3  1  0.08997586  0.22871994  0.57842054  1  0  0.259581  0  0.923091  0  0  0.253896  0  0.971871  0  0  0.259539  0  0.968725  0  0  0.290962  0.250246  0  0.973649  0
H  H4  1  0.34845262  0.91440937  0.42762743  1  0  0.073776  0  0.921642  0  0  0.091511  0  0.982193  0  0  0.091756  0  0.982494  0  0  0.102607  0.091799  0  0.981584  0
H  H5  1  0.65153785  0.08558222  0.57237536  1  0  0.073755  0  0.921649  0  0  0.091527  0  0.98215  0  0  0.091777  0  0.982447  0  0  0.102622  0.09182  0  0.98154  0
H  H6  1  0.28786387  0.70773266  0.49229303  1  0  0.078253  0  0.955813  0  0  0.095536  0  1.017107  0  0  0.094508  0  1.019517  0  0  0.103298  0.096499  0  1.014869  0
H  H7  1  0.71212139  0.29225890  0.50770917  1  0  0.078303  0  0.955888  0  0  0.09563  0  1.017093  0  0  0.094595  0  1.019503  0  0  0.103379  0.0966  0  1.014851  0
H  H8  1  0.76043208  0.03635856  0.31105953  1  0  0.074077  0  0.945189  0  0  0.091308  0  1.008901  0  0  0.090746  0  1.010463  0  0  0.099761  0.091603  0  1.008187  0
H  H9  1  0.23956371  0.96363280  0.68893970  1  0  0.07405  0  0.945281  0  0  0.091348  0  1.008856  0  0  0.090792  0  1.010414  0  0  0.099801  0.091641  0  1.00814  0
H  H10  1  0.02998178  0.11289050  0.31956814  1  0  0.077067  0  0.92202  0  0  0.091947  0  0.989034  0  0  0.092049  0  0.989727  0  0  0.099475  0.091095  0  0.989917  0
H  H11  1  0.97001765  0.88710662  0.68043506  1  0  0.077158  0  0.922065  0  0  0.092035  0  0.98902  0  0  0.092139  0  0.989714  0  0  0.099517  0.091181  0  0.989912  0
C  C12  1  0.67205985  0.83542704  0.08408297  1  0  0.261588  0  3.932536  0  0  0.245743  0  4.236053  0  0  0.264688  0  4.252064  0  0  0.140354  0.23322  0  4.224748  0
C  C13  1  0.32794889  0.16457481  0.91590816  1  0  0.26181  0  3.932508  0  0  0.245965  0  4.236004  0  0  0.264917  0  4.252004  0  0  0.140444  0.233444  0  4.224697  0
C  C14  1  0.64562374  0.48781575  0.29118365  1  0  0.250998  0  3.95011  0  0  0.239967  0  4.253551  0  0  0.256727  0  4.269744  0  0  0.13663  0.228816  0  4.242391  0
C  C15  1  0.35440360  0.51222642  0.70883482  1  0  0.250758  0  3.953621  0  0  0.2397  0  4.256987  0  0  0.256466  0  4.273185  0  0  0.13663  0.228544  0  4.245821  0
C  C16  1  0.20799118  0.85157271  0.48055765  1  0  -0.004499  0  3.63026  0  0  -0.061933  0  3.885851  0  0  -0.058156  0  3.899582  0  0  -0.078317  -0.064034  0  3.875188  0
C  C17  1  0.79200616  0.14843811  0.51946573  1  0  -0.004783  0  3.630884  0  0  -0.062217  0  3.886489  0  0  -0.058426  0  3.900188  0  0  -0.078511  -0.064333  0  3.875832  0
C  C18  1  0.90060449  0.04230118  0.37537827  1  0  -0.005992  0  3.628829  0  0  -0.065896  0  3.889889  0  0  -0.062084  0  3.903394  0  0  -0.079023  -0.068169  0  3.880755  0
C  C19  1  0.09936433  0.95771884  0.62463736  1  0  -0.006306  0  3.629716  0  0  -0.066151  0  3.890657  0  0  -0.062343  0  3.904185  0  0  -0.079141  -0.068414  0  3.881493  0
S  S20  1  0.93576981  0.77039812  0.98370787  1  0  -0.216233  0  2.40354  0  0  -0.179113  0  2.781797  0  0  -0.197686  0  2.779634  0  0  -0.086137  -0.16706  0  2.783799  0
S  S21  1  0.06428418  0.22957817  0.01627264  1  0  -0.216223  0  2.404165  0  0  -0.179127  0  2.782437  0  0  -0.197703  0  2.780273  0  0  -0.086111  -0.167052  0  2.784386  0
S  S22  1  0.46954670  0.38623699  0.20663797  1  0  -0.224174  0  2.301763  0  0  -0.185784  0  2.659409  0  0  -0.203217  0  2.655965  0  0  -0.099755  -0.174715  0  2.660026  0
S  S23  1  0.53037025  0.61374410  0.79332829  1  0  -0.22379  0  2.304137  0  0  -0.18539  0  2.66177  0  0  -0.202829  0  2.65834  0  0  -0.099628  -0.174321  0  2.662381  0
N  N24  1  0.47915646  0.88307356  0.15209363  1  0  -0.452673  0  2.760181  0  0  -0.414381  0  3.02689  0  0  -0.430853  0  3.036639  0  0  -0.352476  -0.403226  0  3.020206  0
N  N25  1  0.52085643  0.11693949  0.84787875  1  0  -0.452836  0  2.759609  0  0  -0.414512  0  3.026288  0  0  -0.431016  0  3.036087  0  0  -0.352536  -0.403356  0  3.019604  0
N  N26  1  0.77543764  0.55332904  0.35290534  1  0  -0.461374  0  2.668556  0  0  -0.434636  0  2.908241  0  0  -0.447318  0  2.91697  0  0  -0.347657  -0.426521  0  2.901994  0
N  N27  1  0.22462043  0.44668236  0.64712847  1  0  -0.461454  0  2.669299  0  0  -0.434686  0  2.908869  0  0  -0.447373  0  2.917603  0  0  -0.34788  -0.426564  0  2.902616  0
N  N28  1  0.02757552  0.85208512  0.38752059  1  0  -0.351665  0  3.216077  0  0  -0.264972  0  3.453956  0  0  -0.2869  0  3.470416  0  0  -0.458485  -0.249846  0  3.441834  0
N  N29  1  0.97242899  0.14788723  0.61246192  1  0  -0.350973  0  3.217203  0  0  -0.264357  0  3.455055  0  0  -0.286293  0  3.471546  0  0  -0.458408  -0.249246  0  3.442932  0
