# generated using pymatgen
data_CuH6C7N5
_symmetry_space_group_name_H-M   'P 1'
_cell_length_a   5.69237469
_cell_length_b   8.22926659
_cell_length_c   8.94081302
_cell_angle_alpha   111.74296701
_cell_angle_beta   90.00009847
_cell_angle_gamma   89.99861295
_symmetry_Int_Tables_number   1
_chemical_formula_structural   CuH6C7N5
_chemical_formula_sum   'Cu2 H12 C14 N10'
_cell_volume   389.02683573
_cell_formula_units_Z   2
loop_
 _symmetry_equiv_pos_site_id
 _symmetry_equiv_pos_as_xyz
  1  'x, y, z'
loop_
 _atom_site_type_symbol
 _atom_site_label
 _atom_site_symmetry_multiplicity
 _atom_site_fract_x
 _atom_site_fract_y
 _atom_site_fract_z
 _atom_site_occupancy
 _atom_site_hle17_bader_spin_density
 _atom_site_hle17_ddec_charge
 _atom_site_hle17_ddec_spin_density
 _atom_site_hle17_ddec_sum_bond_order
 _atom_site_hle17_magmom
 _atom_site_hse06_10hf_bader_spin_density
 _atom_site_hse06_10hf_ddec_charge
 _atom_site_hse06_10hf_ddec_spin_density
 _atom_site_hse06_10hf_ddec_sum_bond_order
 _atom_site_hse06_10hf_magmom
 _atom_site_hse06_bader_spin_density
 _atom_site_hse06_ddec_charge
 _atom_site_hse06_ddec_spin_density
 _atom_site_hse06_ddec_sum_bond_order
 _atom_site_hse06_magmom
 _atom_site_pbe_bader_spin_density
 _atom_site_pbe_cm5_charge
 _atom_site_pbe_ddec_charge
 _atom_site_pbe_ddec_spin_density
 _atom_site_pbe_ddec_sum_bond_order
 _atom_site_pbe_magmom
Cu  Cu0  1  0.62384234  0.10004236  0.62278948  1  0  0.353945  0  2.097069  0  0  0.209212  0  2.618752  0  0  0.200017  0  2.577769  0  0  0.589566  0.219809  0  2.643352  0
Cu  Cu1  1  0.12384343  0.89995484  0.37720440  1  0  0.354071  0  2.097062  0  0  0.209376  0  2.618776  0  0  0.200188  0  2.577801  0  0  0.589633  0.21993  0  2.643362  0
H  H2  1  0.02871723  0.71327963  0.01547122  1  0  0.108523  0  0.935127  0  0  0.118395  0  1.005278  0  0  0.121179  0  1.002595  0  0  0.104439  0.116325  0  1.007346  0
H  H3  1  0.52871051  0.28671139  0.98452474  1  0  0.108455  0  0.935322  0  0  0.118376  0  1.005419  0  0  0.121157  0  1.002726  0  0  0.104437  0.116307  0  1.007486  0
H  H4  1  0.95035176  0.88863054  0.95706540  1  0  0.114579  0  0.933278  0  0  0.128599  0  0.994284  0  0  0.129464  0  0.994804  0  0  0.105757  0.128056  0  0.993673  0
H  H5  1  0.45034092  0.11135778  0.04292914  1  0  0.114573  0  0.933229  0  0  0.128607  0  0.994248  0  0  0.129463  0  0.994764  0  0  0.105761  0.128052  0  0.993646  0
H  H6  1  0.56801939  0.86823626  0.79474178  1  0  0.095463  0  0.977165  0  0  0.099859  0  1.053957  0  0  0.104082  0  1.049096  0  0  0.102852  0.096899  0  1.05718  0
H  H7  1  0.06801174  0.13177354  0.20526440  1  0  0.095436  0  0.977223  0  0  0.09983  0  1.054012  0  0  0.104051  0  1.049153  0  0  0.102868  0.096873  0  1.057231  0
H  H8  1  0.30384473  0.66405539  0.58711323  1  0  0.102045  0  0.976853  0  0  0.108626  0  1.041551  0  0  0.11114  0  1.042233  0  0  0.103337  0.106855  0  1.041174  0
H  H9  1  0.80385072  0.33595627  0.41290183  1  0  0.102045  0  0.976854  0  0  0.108639  0  1.041522  0  0  0.111154  0  1.042205  0  0  0.103347  0.106868  0  1.041145  0
H  H10  1  0.33391859  0.34152036  0.52876116  1  0  0.071274  0  0.955257  0  0  0.074875  0  1.031173  0  0  0.077954  0  1.02844  0  0  0.108398  0.072482  0  1.033491  0
H  H11  1  0.83392399  0.65849220  0.47124869  1  0  0.071278  0  0.955205  0  0  0.074884  0  1.031113  0  0  0.077962  0  1.028377  0  0  0.10841  0.0725  0  1.033428  0
H  H12  1  0.86949552  0.41928228  0.86223757  1  0  0.081725  0  0.963501  0  0  0.086383  0  1.03335  0  0  0.089007  0  1.031967  0  0  0.109729  0.084393  0  1.034692  0
H  H13  1  0.36948257  0.58071155  0.13775660  1  0  0.081749  0  0.963473  0  0  0.086403  0  1.033331  0  0  0.089023  0  1.031952  0  0  0.10977  0.084416  0  1.03467  0
C  C14  1  0.72871446  0.85759839  0.13637346  1  0  0.316585  0  3.724761  0  0  0.304663  0  3.990372  0  0  0.312006  0  4.008836  0  0  0.212566  0.299872  0  3.977766  0
C  C15  1  0.22870803  0.14239415  0.86362113  1  0  0.316751  0  3.724606  0  0  0.304764  0  3.990339  0  0  0.312097  0  4.008798  0  0  0.212566  0.299969  0  3.977735  0
C  C16  1  0.87782331  0.78112397  0.98846400  1  0  -0.234945  0  3.715836  0  0  -0.280063  0  3.953439  0  0  -0.28135  0  3.963739  0  0  -0.144841  -0.278956  0  3.946117  0
C  C17  1  0.37781742  0.21886971  0.01153012  1  0  -0.234877  0  3.715842  0  0  -0.280061  0  3.953524  0  0  -0.28131  0  3.963775  0  0  -0.144809  -0.278935  0  3.946191  0
C  C18  1  0.57659468  0.72814777  0.76802399  1  0  -0.057183  0  3.696232  0  0  -0.087521  0  3.950514  0  0  -0.083992  0  3.966778  0  0  -0.070747  -0.089775  0  3.939496  0
C  C19  1  0.07658396  0.27185664  0.23198025  1  0  -0.057121  0  3.696246  0  0  -0.087478  0  3.950542  0  0  -0.083944  0  3.966808  0  0  -0.070723  -0.08973  0  3.939524  0
C  C20  1  0.73506760  0.66084792  0.84988550  1  0  0.071587  0  3.743227  0  0  0.095943  0  3.975617  0  0  0.091272  0  4.001876  0  0  -0.001986  0.099102  0  3.957666  0
C  C21  1  0.23505609  0.33915506  0.15010952  1  0  0.071584  0  3.743183  0  0  0.096009  0  3.975553  0  0  0.091321  0  4.001817  0  0  -0.001952  0.099161  0  3.957604  0
C  C22  1  0.42974920  0.61449191  0.65148809  1  0  -0.115341  0  3.747521  0  0  -0.120743  0  3.988868  0  0  -0.127898  0  4.011922  0  0  -0.087643  -0.116158  0  3.973677  0
C  C23  1  0.92974802  0.38551615  0.34852252  1  0  -0.115376  0  3.747754  0  0  -0.120791  0  3.989122  0  0  -0.127948  0  4.012172  0  0  -0.08775  -0.116207  0  3.973933  0
C  C24  1  0.44710180  0.43562388  0.61778041  1  0  0.103313  0  3.709185  0  0  0.075476  0  3.954849  0  0  0.080797  0  3.972306  0  0  0.033446  0.071485  0  3.944105  0
C  C25  1  0.94709974  0.56438003  0.38222537  1  0  0.103255  0  3.709142  0  0  0.075398  0  3.954797  0  0  0.08072  0  3.972248  0  0  0.033448  0.071383  0  3.944082  0
C  C26  1  0.74606085  0.47956262  0.80455584  1  0  0.050297  0  3.670513  0  0  0.018461  0  3.915172  0  0  0.022778  0  3.93229  0  0  0.034716  0.015364  0  3.903967  0
C  C27  1  0.24605366  0.52043469  0.19544499  1  0  0.050317  0  3.670579  0  0  0.018414  0  3.915281  0  0  0.022731  0  3.932402  0  0  0.034664  0.015318  0  3.904071  0
N  N28  1  0.81354083  0.93324744  0.28752503  1  0  -0.291892  0  3.250416  0  0  -0.238928  0  3.567295  0  0  -0.245246  0  3.569255  0  0  -0.276824  -0.235762  0  3.56623  0
N  N29  1  0.31353669  0.06675271  0.71247022  1  0  -0.291864  0  3.25039  0  0  -0.238847  0  3.567253  0  0  -0.245161  0  3.569207  0  0  -0.276754  -0.235694  0  3.566207  0
N  N30  1  0.49282516  0.86008549  0.13610965  1  0  -0.325572  0  2.946961  0  0  -0.302553  0  3.222263  0  0  -0.312977  0  3.234718  0  0  -0.233527  -0.295403  0  3.21378  0
N  N31  1  0.99281976  0.13990733  0.86388434  1  0  -0.325692  0  2.946989  0  0  -0.302649  0  3.222322  0  0  -0.313075  0  3.23478  0  0  -0.233611  -0.295501  0  3.213845  0
N  N32  1  0.62262676  0.98455827  0.38347047  1  0  -0.081906  0  3.251702  0  0  -0.042663  0  3.584883  0  0  -0.036054  0  3.578992  0  0  -0.165982  -0.047878  0  3.58951  0
N  N33  1  0.12263120  0.01543637  0.61652135  1  0  -0.082019  0  3.251835  0  0  -0.042798  0  3.585044  0  0  -0.036193  0  3.579163  0  0  -0.166037  -0.048003  0  3.589659  0
N  N34  1  0.43077605  0.93922328  0.29173157  1  0  -0.082388  0  3.300436  0  0  -0.039815  0  3.639877  0  0  -0.035121  0  3.637167  0  0  -0.167869  -0.043935  0  3.641901  0
N  N35  1  0.93078006  0.06076940  0.70826228  1  0  -0.08232  0  3.300437  0  0  -0.039745  0  3.639835  0  0  -0.03505  0  3.637125  0  0  -0.167832  -0.043876  0  3.64187  0
N  N36  1  0.60662700  0.36798436  0.69031438  1  0  -0.280156  0  3.365031  0  0  -0.208292  0  3.65665  0  0  -0.217149  0  3.665679  0  0  -0.355411  -0.202832  0  3.650354  0
N  N37  1  0.10662322  0.63202213  0.30968955  1  0  -0.280198  0  3.364908  0  0  -0.208244  0  3.656448  0  0  -0.217093  0  3.665472  0  0  -0.35541  -0.202774  0  3.650135  0
