# generated using pymatgen
data_CuH4C2(N4O)2
_symmetry_space_group_name_H-M   'P 1'
_cell_length_a   7.37264374
_cell_length_b   7.40905457
_cell_length_c   7.40527601
_cell_angle_alpha   117.65432926
_cell_angle_beta   107.56006311
_cell_angle_gamma   93.55764342
_symmetry_Int_Tables_number   1
_chemical_formula_structural   CuH4C2(N4O)2
_chemical_formula_sum   'Cu2 H8 C4 N16 O4'
_cell_volume   331.67749705
_cell_formula_units_Z   2
loop_
 _symmetry_equiv_pos_site_id
 _symmetry_equiv_pos_as_xyz
  1  'x, y, z'
loop_
 _atom_site_type_symbol
 _atom_site_label
 _atom_site_symmetry_multiplicity
 _atom_site_fract_x
 _atom_site_fract_y
 _atom_site_fract_z
 _atom_site_occupancy
 _atom_site_hle17_ddec_charge
 _atom_site_hle17_ddec_spin_density
 _atom_site_hle17_ddec_sum_bond_order
 _atom_site_hle17_magmom
 _atom_site_hse06_10hf_ddec_charge
 _atom_site_hse06_10hf_ddec_spin_density
 _atom_site_hse06_10hf_ddec_sum_bond_order
 _atom_site_hse06_10hf_magmom
 _atom_site_hse06_ddec_charge
 _atom_site_hse06_ddec_spin_density
 _atom_site_hse06_ddec_sum_bond_order
 _atom_site_hse06_magmom
 _atom_site_pbe_cm5_charge
 _atom_site_pbe_ddec_charge
 _atom_site_pbe_ddec_spin_density
 _atom_site_pbe_ddec_sum_bond_order
 _atom_site_pbe_magmom
Cu  Cu0  1  0.82221017  0.04989869  0.27602599  1  0.880012  0.762144  1.867055  0.566  0.849133  0.838861  2.271552  0.679  0.930957  0.902829  2.208746  0.756  0.778665  0.794826  0.788345  2.31695  0.623
Cu  Cu1  1  0.17778909  0.95010019  0.72397182  1  0.880067  -0.762146  1.866962  -0.566  0.849057  -0.83886  2.271551  -0.679  0.93104  -0.902836  2.208687  -0.756  0.778673  0.794799  -0.788347  2.316946  -0.623
H  H2  1  0.92936036  0.42518198  0.63374300  1  0.393009  0.000645  0.920547  0.001  0.349126  0.001217  1.011475  0.002  0.361314  0.00091  0.994327  0.001  0.290467  0.340337  0.001432  1.023821  0.002
H  H3  1  0.07063852  0.57481530  0.36625529  1  0.392997  -0.000645  0.920529  -0.001  0.349117  -0.001217  1.011475  -0.002  0.36131  -0.000909  0.99432  -0.001  0.290476  0.340331  -0.001432  1.023817  -0.002
H  H4  1  0.68929020  0.33727732  0.53503351  1  0.405457  1.6e-05  0.896152  0.0  0.367886  0.000559  0.98195  0.001  0.380304  0.000355  0.964246  0.0  0.292284  0.358998  0.000712  0.994606  0.001
H  H5  1  0.31070868  0.66271996  0.46496478  1  0.405435  -1.6e-05  0.896189  0.0  0.367856  -0.000559  0.981995  -0.001  0.380278  -0.000355  0.964285  0.0  0.292272  0.358973  -0.000712  0.994645  -0.001
H  H6  1  0.80410982  0.66085375  0.01410331  1  0.393931  0.000418  0.918458  0.0  0.353739  0.000973  1.002732  0.001  0.366217  0.000672  0.985406  0.001  0.284975  0.344899  0.001193  1.014965  0.001
H  H7  1  0.19589115  0.33914663  0.98589980  1  0.393846  -0.000419  0.918451  0.0  0.353667  -0.000973  1.002806  -0.001  0.366149  -0.000672  0.985476  -0.001  0.284949  0.34483  -0.001194  1.015036  -0.001
H  H8  1  0.78440134  0.77748157  0.86866236  1  0.398309  0.000663  0.904683  0.0  0.357749  0.001211  0.99384  0.002  0.369764  0.000883  0.976917  0.001  0.291689  0.349125  0.001444  1.005943  0.002
H  H9  1  0.21559892  0.22251568  0.13133905  1  0.398268  -0.000663  0.904707  0.0  0.357701  -0.001211  0.993906  -0.002  0.369721  -0.000883  0.976978  -0.001  0.291679  0.349081  -0.001444  1.006005  -0.002
C  C10  1  0.39866878  0.73677735  0.13195222  1  0.218593  -0.003375  3.808844  -0.004  0.199879  -0.002092  4.08428  -0.003  0.206045  -0.001498  4.098506  -0.002  0.220555  0.195586  -0.002604  4.074974  -0.003
C  C11  1  0.60133110  0.26322459  0.86805263  1  0.218592  0.00337  3.808679  0.004  0.199874  0.002092  4.084132  0.003  0.206035  0.001498  4.098371  0.002  0.220562  0.195585  0.002604  4.074822  0.003
C  C12  1  0.55690646  0.76061307  0.31961337  1  0.238202  -0.001299  3.799433  0.0  0.217619  0.000474  4.069022  0.001  0.229101  -0.000236  4.083803  0.0  0.226594  0.209956  0.001055  4.059171  0.002
C  C13  1  0.44309038  0.23938745  0.68038040  1  0.238374  0.001294  3.799154  0.0  0.217753  -0.000473  4.068782  -0.001  0.229241  0.000235  4.083572  0.0  0.226619  0.210084  -0.001055  4.058932  -0.002
N  N14  1  0.14710277  0.61122633  0.83614211  1  -0.055909  0.005109  3.000396  0.005  -0.024943  0.001319  3.272931  0.001  -0.023327  0.001667  3.284535  0.002  -0.073714  -0.025713  0.00131  3.265229  0.001
N  N15  1  0.85289396  0.38877408  0.16385834  1  -0.055877  -0.005113  3.000368  -0.005  -0.024918  -0.001316  3.272937  -0.001  -0.023303  -0.001669  3.284524  -0.002  -0.073742  -0.02569  -0.00131  3.265231  -0.001
N  N16  1  0.54619395  0.68293142  0.44840471  1  -0.272852  0.002763  2.989031  0.003  -0.24119  0.001272  3.257879  0.001  -0.251335  0.0012  3.26666  0.001  -0.200244  -0.234176  0.001174  3.251929  0.001
N  N17  1  0.45380562  0.31706898  0.55159662  1  -0.27294  -0.002768  2.989128  -0.003  -0.241268  -0.001272  3.257979  -0.001  -0.251416  -0.0012  3.266763  -0.001  -0.20026  -0.234249  -0.001174  3.252027  -0.001
N  N18  1  0.24709598  0.56772006  0.98767538  1  -0.24707  -0.007199  2.998182  -0.009  -0.207475  -0.003636  3.250838  -0.005  -0.216866  -0.00187  3.260955  -0.003  -0.189149  -0.200891  -0.005438  3.244029  -0.007
N  N19  1  0.75290326  0.43227880  0.01232377  1  -0.247158  0.007196  2.998208  0.009  -0.207544  0.003635  3.250845  0.005  -0.216936  0.001871  3.260969  0.003  -0.189147  -0.200962  0.005438  3.244037  0.007
N  N20  1  0.84528063  0.85617174  0.56334061  1  -0.074762  -0.00127  3.085455  -0.003  -0.064171  0.000267  3.409772  -0.001  -0.069608  -0.000106  3.423382  -0.002  -0.100076  -0.060622  0.000566  3.401425  -0.001
N  N21  1  0.15472003  0.14382711  0.43665897  1  -0.074811  0.001251  3.085452  0.003  -0.064255  -0.000269  3.409786  0.001  -0.069651  0.000108  3.423375  0.002  -0.100109  -0.060696  -0.000566  3.401432  0.001
N  N22  1  0.39423304  0.88387910  0.07440930  1  -0.268468  -0.001218  2.977896  -0.001  -0.265796  -0.002412  3.282554  -0.002  -0.273487  -0.001423  3.297805  -0.001  -0.208345  -0.260501  -0.003179  3.272854  -0.003
N  N23  1  0.60576764  0.11611977  0.92558895  1  -0.268498  0.00123  2.977905  0.001  -0.265798  0.00241  3.282561  0.002  -0.273505  0.001426  3.297815  0.001  -0.208358  -0.260508  0.003179  3.272858  0.003
N  N24  1  0.23623951  0.80043040  0.89033319  1  -0.076889  -0.071207  3.27406  -0.091  -0.056779  -0.04602  3.612688  -0.063  -0.076961  -0.037014  3.631285  -0.053  -0.131415  -0.044139  -0.051576  3.601172  -0.068
N  N25  1  0.76376011  0.19957004  0.10966548  1  -0.07687  0.07121  3.27402  0.091  -0.056812  0.046022  3.612693  0.063  -0.076945  0.037017  3.63124  0.053  -0.131419  -0.044158  0.051578  3.601158  0.068
N  N26  1  0.72841056  0.74526002  0.59899199  1  -0.069455  0.006462  3.026488  0.009  -0.040219  0.003576  3.314559  0.005  -0.040709  0.001969  3.324746  0.003  -0.073465  -0.039294  0.005168  3.307562  0.007
N  N27  1  0.27158867  0.25473883  0.40100716  1  -0.069382  -0.006447  3.02646  -0.009  -0.040124  -0.003575  3.314531  -0.005  -0.040616  -0.001971  3.324703  -0.003  -0.073432  -0.039202  -0.005168  3.30753  -0.007
N  N28  1  0.74151171  0.86894510  0.38897599  1  -0.268878  0.061119  3.209317  0.078  -0.241286  0.040647  3.533413  0.055  -0.266802  0.032886  3.551511  0.047  -0.24262  -0.224741  0.045427  3.521994  0.06
N  N29  1  0.25848895  0.13105375  0.61102359  1  -0.268915  -0.061107  3.20918  -0.078  -0.241276  -0.040647  3.533278  -0.055  -0.266841  -0.032884  3.55141  -0.047  -0.242599  -0.224743  -0.045426  3.521875  -0.06
O  O30  1  0.81755614  0.29741291  0.54560624  1  -0.80231  0.07352  2.071826  0.099  -0.782522  0.050856  2.332903  0.073  -0.817281  0.039051  2.298641  0.059  -0.583801  -0.758325  0.05898  2.357135  0.082
O  O31  1  0.18244316  0.70258601  0.45438891  1  -0.802281  -0.073519  2.071817  -0.099  -0.782464  -0.050858  2.332909  -0.073  -0.817269  -0.039052  2.298661  -0.059  -0.583793  -0.758279  -0.058982  2.357135  -0.082
O  O32  1  0.83622691  0.79873647  0.02023727  1  -0.790936  0.080472  2.066397  0.108  -0.770723  0.054034  2.326766  0.078  -0.807349  0.041174  2.29362  0.062  -0.582404  -0.745316  0.062966  2.35009  0.087
O  O33  1  0.16377517  0.20126237  0.97976276  1  -0.790829  -0.080472  2.066369  -0.108  -0.770597  -0.054035  2.326794  -0.078  -0.807269  -0.041174  2.29366  -0.062  -0.582365  -0.745205  -0.062966  2.350121  -0.087
