# generated using pymatgen
data_CuAg2H6C14(NO5)2
_symmetry_space_group_name_H-M   'P 1'
_cell_length_a   5.05691224
_cell_length_b   8.87091684
_cell_length_c   8.97381724
_cell_angle_alpha   95.26666547
_cell_angle_beta   95.54429823
_cell_angle_gamma   102.98520001
_symmetry_Int_Tables_number   1
_chemical_formula_structural   CuAg2H6C14(NO5)2
_chemical_formula_sum   'Cu1 Ag2 H6 C14 N2 O10'
_cell_volume   387.74842108
_cell_formula_units_Z   1
loop_
 _symmetry_equiv_pos_site_id
 _symmetry_equiv_pos_as_xyz
  1  'x, y, z'
loop_
 _atom_site_type_symbol
 _atom_site_label
 _atom_site_symmetry_multiplicity
 _atom_site_fract_x
 _atom_site_fract_y
 _atom_site_fract_z
 _atom_site_occupancy
 _atom_site_hle17_ddec_charge
 _atom_site_hle17_ddec_spin_density
 _atom_site_hle17_ddec_sum_bond_order
 _atom_site_hle17_magmom
 _atom_site_hse06_10hf_ddec_charge
 _atom_site_hse06_10hf_ddec_spin_density
 _atom_site_hse06_10hf_ddec_sum_bond_order
 _atom_site_hse06_10hf_magmom
 _atom_site_hse06_ddec_charge
 _atom_site_hse06_ddec_spin_density
 _atom_site_hse06_ddec_sum_bond_order
 _atom_site_hse06_magmom
 _atom_site_pbe_cm5_charge
 _atom_site_pbe_ddec_charge
 _atom_site_pbe_ddec_spin_density
 _atom_site_pbe_ddec_sum_bond_order
 _atom_site_pbe_magmom
Cu  Cu0  1  0.99999906  0.99999941  0.00000225  1  0.978036  0.665043  1.690119  0.497  0.977866  0.768379  2.077861  0.623  1.069303  0.847061  2.012016  0.718  0.71342  0.916319  0.708757  2.133356  0.558
Ag  Ag1  1  0.58900328  0.96692113  0.35130365  1  0.658899  0.017919  1.25009  0.011  0.539307  0.010731  1.691636  0.007  0.573429  0.003961  1.631019  0.002  0.436085  0.516397  0.018056  1.733111  0.012
Ag  Ag2  1  0.41099026  0.03307982  0.64869552  1  0.658875  0.017919  1.250096  0.011  0.539269  0.010731  1.691655  0.007  0.573396  0.003961  1.631037  0.002  0.436076  0.516357  0.018059  1.733118  0.012
H  H3  1  0.29228617  0.55913505  0.44983182  1  0.119254  0.000136  0.960107  0.0  0.12873  2.2e-05  1.018581  0.0  0.131567  4e-06  1.018584  0.0  0.112217  0.126811  5.4e-05  1.018372  0.0
H  H4  1  0.70770007  0.44086249  0.55017229  1  0.119228  0.000137  0.960063  0.0  0.128777  2.2e-05  1.018462  0.0  0.131619  5e-06  1.018456  0.0  0.112233  0.126857  5.5e-05  1.018256  0.0
H  H5  1  0.00622658  0.68369538  0.27870714  1  0.127574  -0.000625  0.93555  -0.001  0.13641  -7.5e-05  0.995561  0.0  0.140903  -9.1e-05  0.990826  0.0  0.115898  0.132788  -6.3e-05  0.99935  0.0
H  H6  1  0.99376458  0.31630448  0.72129628  1  0.127689  -0.000627  0.935762  -0.001  0.136558  -7.5e-05  0.995695  0.0  0.141053  -9.2e-05  0.990954  0.0  0.115971  0.132936  -6.3e-05  0.999484  0.0
H  H7  1  0.69949892  0.52033282  0.06185875  1  0.127134  0.000104  0.963059  0.0  0.134485  5e-05  1.024162  0.0  0.138064  2.9e-05  1.022875  0.0  0.112696  0.131717  7.5e-05  1.025441  0.0
H  H8  1  0.30050752  0.47966576  0.93813866  1  0.127132  0.000105  0.963061  0.0  0.134471  5e-05  1.024177  0.0  0.138049  2.9e-05  1.022891  0.0  0.112687  0.131694  7.5e-05  1.025461  0.0
C  C9  1  0.14334596  0.33266338  0.32560723  1  0.063336  0.012787  3.593092  0.013  0.058571  0.007107  3.840524  0.008  0.063486  0.005621  3.851391  0.006  0.126861  0.054319  0.008646  3.834266  0.009
C  C10  1  0.85665704  0.66733171  0.67438973  1  0.063533  0.012812  3.59298  0.013  0.058725  0.007108  3.840461  0.008  0.063649  0.005628  3.851328  0.006  0.126895  0.054357  0.008648  3.834339  0.009
C  C11  1  0.15987696  0.49111563  0.35266244  1  -0.101841  -0.010468  3.693481  -0.007  -0.120131  -0.003337  3.943962  -0.002  -0.124626  -0.004402  3.961168  -0.003  -0.070788  -0.117737  -0.002794  3.932794  -0.002
C  C12  1  0.84012210  0.50888890  0.64734286  1  -0.101855  -0.010508  3.69353  -0.007  -0.120188  -0.003339  3.944024  -0.002  -0.124684  -0.004413  3.961217  -0.003  -0.070816  -0.117755  -0.002796  3.932881  -0.002
C  C13  1  0.00060648  0.56029847  0.25731598  1  0.011874  0.013525  3.65307  0.013  -0.016644  0.007316  3.915713  0.007  -0.01066  0.005543  3.928476  0.006  -0.064305  -0.020817  0.009267  3.90727  0.009
C  C14  1  0.99939407  0.43969546  0.74268189  1  0.011722  0.013559  3.65313  0.013  -0.016831  0.007321  3.915797  0.007  -0.010846  0.005553  3.928567  0.006  -0.064362  -0.021004  0.009273  3.907339  0.009
C  C15  1  0.82689039  0.46847501  0.13652356  1  -0.098408  -0.006683  3.703075  -0.005  -0.120884  -0.002974  3.956559  -0.002  -0.126116  -0.004253  3.976101  -0.003  -0.0719  -0.117753  -0.002215  3.943697  -0.002
C  C16  1  0.17311951  0.53153180  0.86347912  1  -0.098376  -0.006727  3.703198  -0.005  -0.120843  -0.002973  3.956704  -0.002  -0.126079  -0.004267  3.976246  -0.003  -0.071875  -0.117708  -0.002217  3.943848  -0.002
C  C17  1  0.81375533  0.31011890  0.11018503  1  0.030248  0.006912  3.63037  0.008  0.02428  0.005406  3.880387  0.006  0.026678  0.004235  3.89426  0.005  0.117329  0.021671  0.006852  3.871361  0.007
C  C18  1  0.18624573  0.68987622  0.88981407  1  0.030155  0.006935  3.630563  0.008  0.024197  0.005404  3.880567  0.006  0.026598  0.004242  3.894446  0.005  0.117231  0.021577  0.006852  3.871543  0.007
C  C19  1  0.29790783  0.23722801  0.41573116  1  0.619349  -0.000913  3.994468  -0.001  0.565611  4e-06  4.288923  0.0  0.601921  -0.000125  4.28053  0.0  0.204234  0.54105  7e-05  4.293454  0.0
C  C20  1  0.70209361  0.76277290  0.58426618  1  0.619316  -0.000913  3.994529  -0.001  0.565613  5e-06  4.288932  0.0  0.601921  -0.000128  4.280538  0.0  0.204253  0.541091  7e-05  4.29344  0.0
C  C21  1  0.63441457  0.20913694  0.97737520  1  0.628743  -0.006092  3.921237  -0.006  0.583972  -0.001434  4.221545  -0.002  0.621199  -0.001511  4.212296  -0.002  0.211567  0.559004  -0.001387  4.225303  -0.002
C  C22  1  0.36559087  0.79086398  0.02262345  1  0.628816  -0.006097  3.921037  -0.006  0.584032  -0.001432  4.221357  -0.002  0.621259  -0.001512  4.212112  -0.002  0.211611  0.559064  -0.001387  4.225141  -0.002
N  N23  1  0.97281069  0.24720957  0.20597730  1  0.226213  -0.008403  3.613428  -0.01  0.268027  -0.004826  3.872337  -0.005  0.269644  -0.006146  3.892305  -0.006  -0.113015  0.266549  -0.003061  3.859687  -0.004
N  N24  1  0.02719577  0.75279374  0.79402494  1  0.226161  -0.008431  3.613283  -0.01  0.267985  -0.004828  3.872188  -0.005  0.269593  -0.006157  3.892159  -0.006  -0.113018  0.266538  -0.003062  3.859555  -0.004
O  O25  1  0.95012910  0.09278454  0.19533935  1  -0.499907  0.073414  1.9872  0.102  -0.473371  0.04698  2.296928  0.071  -0.50936  0.036398  2.289208  0.059  -0.240001  -0.45025  0.051593  2.303287  0.074
O  O26  1  0.04987689  0.90721761  0.80466277  1  -0.499881  0.073408  1.987171  0.102  -0.473295  0.046975  2.29682  0.071  -0.509297  0.036394  2.289142  0.059  -0.239963  -0.450168  0.051593  2.303159  0.074
O  O27  1  0.50206079  0.20704765  0.35906487  1  -0.610734  0.001874  2.117642  0.003  -0.550206  0.000669  2.389614  0.001  -0.583454  0.000198  2.380921  0.0  -0.313862  -0.526715  0.001564  2.39453  0.002
O  O28  1  0.49794167  0.79295093  0.64093234  1  -0.610772  0.001874  2.117708  0.003  -0.550274  0.000669  2.389691  0.001  -0.58352  0.0002  2.380999  0.0  -0.313932  -0.526782  0.001565  2.394576  0.002
O  O29  1  0.20758181  0.19792928  0.53646207  1  -0.590071  0.003244  2.083264  0.004  -0.520834  0.001838  2.353181  0.003  -0.553493  0.00092  2.340075  0.001  -0.300366  -0.498175  0.002295  2.360948  0.003
O  O30  1  0.79241815  0.80207281  0.46353640  1  -0.590087  0.003244  2.083331  0.004  -0.520848  0.001839  2.353221  0.003  -0.553506  0.00092  2.340114  0.001  -0.300355  -0.498196  0.002295  2.360971  0.003
O  O31  1  0.72630469  0.10134598  0.90624071  1  -0.624219  0.062962  2.123527  0.088  -0.583991  0.044371  2.425242  0.067  -0.626184  0.034485  2.411741  0.057  -0.32383  -0.554172  0.0504  2.433572  0.073
O  O32  1  0.27368999  0.89864803  0.09376132  1  -0.624239  0.062964  2.123513  0.088  -0.58401  0.044369  2.425248  0.067  -0.626206  0.034485  2.411747  0.057  -0.323826  -0.554196  0.050394  2.433597  0.073
O  O33  1  0.41251557  0.24105683  0.93685415  1  -0.576437  0.007805  1.929208  0.012  -0.542252  0.003965  2.17152  0.007  -0.567643  0.001613  2.160021  0.004  -0.295512  -0.522828  0.006268  2.177849  0.01
O  O34  1  0.58748776  0.75894870  0.06314141  1  -0.576461  0.007806  1.929195  0.012  -0.542285  0.003965  2.171543  0.007  -0.567655  0.001613  2.159994  0.004  -0.295539  -0.522842  0.006267  2.177846  0.01
