# generated using pymatgen
data_CsH6(C2O3)2
_symmetry_space_group_name_H-M   'P 1'
_cell_length_a   6.47795242
_cell_length_b   5.65709691
_cell_length_c   9.94750958
_cell_angle_alpha   96.87226733
_cell_angle_beta   75.37441627
_cell_angle_gamma   91.69734975
_symmetry_Int_Tables_number   1
_chemical_formula_structural   CsH6(C2O3)2
_chemical_formula_sum   'Cs2 H12 C8 O12'
_cell_volume   350.19379588
_cell_formula_units_Z   2
loop_
 _symmetry_equiv_pos_site_id
 _symmetry_equiv_pos_as_xyz
  1  'x, y, z'
loop_
 _atom_site_type_symbol
 _atom_site_label
 _atom_site_symmetry_multiplicity
 _atom_site_fract_x
 _atom_site_fract_y
 _atom_site_fract_z
 _atom_site_occupancy
 _atom_site_pbe_bader_spin_density
 _atom_site_pbe_cm5_charge
 _atom_site_pbe_ddec_charge
 _atom_site_pbe_ddec_spin_density
 _atom_site_pbe_ddec_sum_bond_order
 _atom_site_pbe_magmom
Cs  Cs0  1  0.91247062  0.94482295  0.70687201  1  0  0.836595  0.892726  0  0.794642  0
Cs  Cs1  1  0.08755180  0.05511754  0.29308953  1  0  0.836658  0.892719  0  0.794798  0
H  H2  1  0.39133607  0.82615055  0.53664432  1  0  0.299591  0.316603  0  1.000573  0
H  H3  1  0.60901349  0.17411261  0.46328063  1  0  0.299498  0.316546  0  1.000276  0
H  H4  1  0.16287791  0.46360302  0.57609281  1  0  0.277102  0.325238  0  1.03231  0
H  H5  1  0.83707515  0.53636501  0.42391284  1  0  0.277051  0.325294  0  1.032326  0
H  H6  1  0.12224454  0.66363016  0.93369480  1  0  0.317069  0.364993  0  0.964374  0
H  H7  1  0.87773961  0.33637590  0.06630521  1  0  0.317046  0.364938  0  0.964281  0
H  H8  1  0.37621997  0.92369563  0.89588177  1  0  0.315059  0.365832  0  0.975112  0
H  H9  1  0.62377940  0.07630673  0.10412027  1  0  0.31509  0.365866  0  0.975052  0
H  H10  1  0.40976036  0.22279305  0.65873125  1  0  0.102784  0.040351  0  1.05077  0
H  H11  1  0.59017717  0.77721019  0.34126727  1  0  0.102752  0.040349  0  1.050789  0
H  H12  1  0.56131345  0.50341171  0.82489248  1  0  0.129804  0.096197  0  0.965075  0
H  H13  1  0.43866092  0.49657355  0.17509890  1  0  0.129833  0.096119  0  0.96518  0
C  C14  1  0.52457931  0.54172184  0.57361511  1  0  0.101389  0.337389  0  3.988678  0
C  C15  1  0.47537904  0.45826430  0.42639775  1  0  0.101423  0.337229  0  3.988992  0
C  C16  1  0.36257313  0.41215043  0.68503395  1  0  -0.028522  0.062584  0  3.876732  0
C  C17  1  0.63737008  0.58785408  0.31497757  1  0  -0.028638  0.06251  0  3.8769  0
C  C18  1  0.38882505  0.47677577  0.83592582  1  0  0.005806  0.050794  0  3.830084  0
C  C19  1  0.61114579  0.52321543  0.16407797  1  0  0.005665  0.050772  0  3.830055  0
C  C20  1  0.31727156  0.26446712  0.91482662  1  0  0.231685  0.580272  0  4.073143  0
C  C21  1  0.68271044  0.73552575  0.08517592  1  0  0.23187  0.580384  0  4.073519  0
O  O22  1  0.48046935  0.79982927  0.59986210  1  0  -0.464833  -0.587697  0  2.263087  0
O  O23  1  0.51960094  0.20015747  0.40018188  1  0  -0.464796  -0.587697  0  2.262271  0
O  O24  1  0.72827669  0.49510994  0.57497928  1  0  -0.485049  -0.709993  0  2.16676  0
O  O25  1  0.27168280  0.50474673  0.42500697  1  0  -0.485086  -0.709922  0  2.166995  0
O  O26  1  0.14718912  0.44174460  0.68122469  1  0  -0.516886  -0.586339  0  2.322102  0
O  O27  1  0.85275681  0.55829293  0.31879181  1  0  -0.516601  -0.586255  0  2.322327  0
O  O28  1  0.27947666  0.68442663  0.91158458  1  0  -0.382975  -0.485683  0  2.424776  0
O  O29  1  0.72050684  0.31556947  0.08842802  1  0  -0.382901  -0.485583  0  2.424704  0
O  O30  1  0.14518366  0.25432031  0.00382297  1  0  -0.346797  -0.545901  0  2.252264  0
O  O31  1  0.85479519  0.74566132  0.99617886  1  0  -0.346838  -0.546006  0  2.252834  0
O  O32  1  0.45166747  0.08412167  0.87277726  1  0  -0.39182  -0.517248  0  2.438388  0
O  O33  1  0.54832656  0.91587877  0.12722865  1  0  -0.392025  -0.517382  0  2.438425  0
