# generated using pymatgen
data_Cu2H4C5SNCl
_symmetry_space_group_name_H-M   'P 1'
_cell_length_a   3.86587687
_cell_length_b   7.85317491
_cell_length_c   11.13181387
_cell_angle_alpha   90.00018187
_cell_angle_beta   94.53742394
_cell_angle_gamma   89.99969539
_symmetry_Int_Tables_number   1
_chemical_formula_structural   Cu2H4C5SNCl
_chemical_formula_sum   'Cu4 H8 C10 S2 N2 Cl2'
_cell_volume   336.89607599
_cell_formula_units_Z   2
loop_
 _symmetry_equiv_pos_site_id
 _symmetry_equiv_pos_as_xyz
  1  'x, y, z'
loop_
 _atom_site_type_symbol
 _atom_site_label
 _atom_site_symmetry_multiplicity
 _atom_site_fract_x
 _atom_site_fract_y
 _atom_site_fract_z
 _atom_site_occupancy
 _atom_site_hle17_bader_spin_density
 _atom_site_hle17_ddec_charge
 _atom_site_hle17_ddec_spin_density
 _atom_site_hle17_ddec_sum_bond_order
 _atom_site_hle17_magmom
 _atom_site_hse06_10hf_bader_spin_density
 _atom_site_hse06_10hf_ddec_charge
 _atom_site_hse06_10hf_ddec_spin_density
 _atom_site_hse06_10hf_ddec_sum_bond_order
 _atom_site_hse06_10hf_magmom
 _atom_site_hse06_bader_spin_density
 _atom_site_hse06_ddec_charge
 _atom_site_hse06_ddec_spin_density
 _atom_site_hse06_ddec_sum_bond_order
 _atom_site_hse06_magmom
 _atom_site_pbe_bader_spin_density
 _atom_site_pbe_cm5_charge
 _atom_site_pbe_ddec_charge
 _atom_site_pbe_ddec_spin_density
 _atom_site_pbe_ddec_sum_bond_order
 _atom_site_pbe_magmom
Cu  Cu0  1  0.44154583  0.62362017  0.16272771  1  0  0.386466  0  2.134502  0  0  0.311799  0  2.650643  0  0  0.315645  0  2.593755  0  0  0.331097  0.30959  0  2.690272  0
Cu  Cu1  1  0.44154877  0.37638374  0.66272967  1  0  0.38647  0  2.13455  0  0  0.311799  0  2.650691  0  0  0.315639  0  2.593807  0  0  0.331057  0.309593  0  2.690193  0
Cu  Cu2  1  0.85197660  0.51073201  0.37409645  1  0  0.397019  0  2.032733  0  0  0.318158  0  2.518998  0  0  0.319982  0  2.46865  0  0  0.374794  0.31922  0  2.552368  0
Cu  Cu3  1  0.85198085  0.48926923  0.87409419  1  0  0.396979  0  2.032735  0  0  0.318136  0  2.518993  0  0  0.319966  0  2.468644  0  0  0.374769  0.319201  0  2.552306  0
H  H4  1  0.10571704  0.31470739  0.18215652  1  0  0.066902  0  0.997403  0  0  0.072936  0  1.073399  0  0  0.076838  0  1.067997  0  0  0.090977  0.069732  0  1.077824  0
H  H5  1  0.10572715  0.68528859  0.68215661  1  0  0.066885  0  0.997477  0  0  0.072915  0  1.073486  0  0  0.076816  0  1.068082  0  0  0.090968  0.069706  0  1.077896  0
H  H6  1  0.17361252  0.01313742  0.12485617  1  0  0.107816  0  0.951238  0  0  0.121309  0  1.008544  0  0  0.124265  0  1.008328  0  0  0.102232  0.118986  0  1.00916  0
H  H7  1  0.17362198  0.98685430  0.62485150  1  0  0.107795  0  0.951187  0  0  0.121284  0  1.00849  0  0  0.124252  0  1.008261  0  0  0.102208  0.118943  0  1.009129  0
H  H8  1  0.69971707  0.87166029  0.44931001  1  0  0.114968  0  0.965382  0  0  0.124162  0  1.028434  0  0  0.127537  0  1.028007  0  0  0.095372  0.121786  0  1.028664  0
H  H9  1  0.69972250  0.12834679  0.94931059  1  0  0.114975  0  0.965404  0  0  0.124163  0  1.02845  0  0  0.127537  0  1.028026  0  0  0.095387  0.121794  0  1.028681  0
H  H10  1  0.65832642  0.18266141  0.49599877  1  0  0.057521  0  0.981596  0  0  0.062026  0  1.062824  0  0  0.066691  0  1.056548  0  0  0.092639  0.058155  0  1.06811  0
H  H11  1  0.65832735  0.81734599  0.99599713  1  0  0.057539  0  0.981652  0  0  0.062062  0  1.062854  0  0  0.066728  0  1.056575  0  0  0.092669  0.058191  0  1.068157  0
C  C12  1  0.01960154  0.21369371  0.23978177  1  0  0.128616  0  3.706703  0  0  0.09961  0  3.95619  0  0  0.107398  0  3.971844  0  0  0.031034  0.094407  0  3.946076  0
C  C13  1  0.01960803  0.78630404  0.73978199  1  0  0.128596  0  3.706838  0  0  0.0996  0  3.956332  0  0  0.107391  0  3.971986  0  0  0.03101  0.094406  0  3.946191  0
C  C14  1  0.05629309  0.04485487  0.20771639  1  0  -0.167239  0  3.71525  0  0  -0.180073  0  3.948685  0  0  -0.189796  0  3.973262  0  0  -0.095656  -0.173797  0  3.93268  0
C  C15  1  0.05630047  0.95514518  0.70771700  1  0  -0.167213  0  3.715302  0  0  -0.180015  0  3.948733  0  0  -0.189749  0  3.973308  0  0  -0.095621  -0.173738  0  3.932697  0
C  C16  1  0.93863987  0.91679802  0.28230403  1  0  0.168564  0  3.740417  0  0  0.189393  0  3.977585  0  0  0.195948  0  4.000294  0  0  0.000813  0.184549  0  3.96247  0
C  C17  1  0.93865348  0.08319747  0.78230291  1  0  0.168644  0  3.740512  0  0  0.189424  0  3.977776  0  0  0.195985  0  4.000473  0  0  0.000879  0.184574  0  3.962648  0
C  C18  1  0.79404876  0.96682536  0.38851503  1  0  -0.173072  0  3.704372  0  0  -0.186478  0  3.939328  0  0  -0.195495  0  3.962852  0  0  -0.09606  -0.180579  0  3.923819  0
C  C19  1  0.79405509  0.03317482  0.88851363  1  0  -0.173083  0  3.704539  0  0  -0.186456  0  3.939467  0  0  -0.195473  0  3.962994  0  0  -0.096065  -0.180567  0  3.923978  0
C  C20  1  0.76975620  0.13925825  0.41411640  1  0  0.127939  0  3.71132  0  0  0.102325  0  3.957671  0  0  0.108889  0  3.974738  0  0  0.033439  0.09798  0  3.946883  0
C  C21  1  0.76976453  0.86074339  0.91411683  1  0  0.127915  0  3.711365  0  0  0.102302  0  3.957702  0  0  0.108865  0  3.97477  0  0  0.033438  0.097954  0  3.946934  0
S  S22  1  0.95946054  0.70194339  0.23738887  1  0  -0.431446  0  3.350377  0  0  -0.401105  0  3.96041  0  0  -0.398026  0  3.903633  0  0  -0.313954  -0.403536  0  4.000349  0
S  S23  1  0.95945891  0.29805439  0.73738515  1  0  -0.431508  0  3.350336  0  0  -0.401155  0  3.960398  0  0  -0.398081  0  3.903625  0  0  -0.313972  -0.403566  0  4.000187  0
N  N24  1  0.87846742  0.26317470  0.34167776  1  0  -0.307656  0  3.382015  0  0  -0.235294  0  3.675747  0  0  -0.246584  0  3.682848  0  0  -0.372837  -0.228522  0  3.671227  0
N  N25  1  0.87847431  0.73682504  0.84167519  1  0  -0.307601  0  3.382003  0  0  -0.235278  0  3.675765  0  0  -0.246569  0  3.682868  0  0  -0.372843  -0.228506  0  3.671223  0
Cl  Cl26  1  0.43059290  0.43649679  0.01033709  1  0  -0.476382  0  1.518355  0  0  -0.398773  0  1.931896  0  0  -0.413301  0  1.891313  0  0  -0.273883  -0.387977  0  1.959142  0
Cl  Cl27  1  0.43059402  0.56350899  0.51034119  1  0  -0.476409  0  1.518393  0  0  -0.398775  0  1.931878  0  0  -0.413299  0  1.891292  0  0  -0.273889  -0.387982  0  1.959099  0
