# generated using pymatgen
data_FeH5C8O5
_symmetry_space_group_name_H-M   'P 1'
_cell_length_a   7.02941747
_cell_length_b   11.39344109
_cell_length_c   11.39342107
_cell_angle_alpha   77.95061887
_cell_angle_beta   72.03711724
_cell_angle_gamma   72.03599698
_symmetry_Int_Tables_number   1
_chemical_formula_structural   FeH5C8O5
_chemical_formula_sum   'Fe2 H10 C16 O10'
_cell_volume   819.16046817
_cell_formula_units_Z   2
loop_
 _symmetry_equiv_pos_site_id
 _symmetry_equiv_pos_as_xyz
  1  'x, y, z'
loop_
 _atom_site_type_symbol
 _atom_site_label
 _atom_site_symmetry_multiplicity
 _atom_site_fract_x
 _atom_site_fract_y
 _atom_site_fract_z
 _atom_site_occupancy
 _atom_site_pbe_bader_charge
 _atom_site_pbe_bader_spin_density
 _atom_site_pbe_cm5_charge
 _atom_site_pbe_ddec_charge
 _atom_site_pbe_ddec_spin_density
 _atom_site_pbe_ddec_sum_bond_order
 _atom_site_pbe_magmom
Fe  Fe0  1  0.49999992  0.00000056  0.99999931  1  1.762719  4.114247  0.88918  1.431493  4.57652  2.601685  4.085
Fe  Fe1  1  0.00000000  0.00000000  0.00000000  1  1.762581  4.114258  0.889135  1.431697  4.576536  2.601887  4.085
H  H2  1  0.36325136  0.38374803  0.00041762  1  0.101729  0.000681  0.107554  0.113257  0.000182  1.001785  0.0
H  H3  1  0.25000374  0.86848934  0.13150920  1  0.613266  0.009876  0.323972  0.422481  0.004762  0.859899  0.01
H  H4  1  0.13675004  0.99958393  0.61624862  1  0.10178  0.000681  0.107537  0.113236  0.000182  1.001707  0.0
H  H5  1  0.24726780  0.61641204  0.99952678  1  0.091213  0.000687  0.106723  0.111252  0.000182  1.003274  0.0
H  H6  1  0.74999720  0.13151106  0.86848995  1  0.613255  0.009875  0.323985  0.422517  0.004762  0.85986  0.01
H  H7  1  0.25273164  0.00047620  0.38358393  1  0.091197  0.000686  0.106732  0.111249  0.000181  1.003353  0.0
H  H8  1  0.63674768  0.61625326  0.99958522  1  0.101731  0.000681  0.107564  0.113267  0.000182  1.001744  0.0
H  H9  1  0.86325022  0.00041462  0.38374926  1  0.101781  0.000681  0.107541  0.113245  0.000183  1.001682  0.0
H  H10  1  0.75273016  0.38358832  0.00047558  1  0.091258  0.000687  0.106725  0.111254  0.000182  1.003275  0.0
H  H11  1  0.74726821  0.99952329  0.61641385  1  0.091247  0.000686  0.106745  0.111264  0.000181  1.003343  0.0
C  C12  1  0.20481831  0.43591048  0.00004156  1  -0.069886  0.003446  -0.080335  -0.093195  0.001564  3.969317  0.002
C  C13  1  0.29518254  0.99996099  0.56408652  1  -0.069882  0.003444  -0.080386  -0.093213  0.001564  3.969396  0.002
C  C14  1  0.14068760  0.56420731  0.99986768  1  -0.028724  0.003464  -0.079355  -0.09043  0.001571  3.970698  0.002
C  C15  1  0.35931122  0.00013389  0.43578993  1  -0.028703  0.003465  -0.079354  -0.090447  0.001571  3.970461  0.002
C  C16  1  0.79517923  0.56409080  0.99996157  1  -0.069948  0.003446  -0.080315  -0.093151  0.001564  3.969199  0.002
C  C17  1  0.70481731  0.00003848  0.43591214  1  -0.069947  0.003445  -0.080386  -0.093242  0.001564  3.969293  0.002
C  C18  1  0.85931036  0.43579303  0.00013644  1  -0.028735  0.003464  -0.079374  -0.090461  0.001571  3.970646  0.002
C  C19  1  0.64068864  0.99986559  0.56420785  1  -0.028706  0.003465  -0.079345  -0.09041  0.001571  3.970388  0.002
C  C20  1  0.06447600  0.37108339  0.00008869  1  0.030717  0.017849  -0.010554  -0.030054  0.00859  3.956812  0.013
C  C21  1  0.13413957  0.23326253  0.99879859  1  1.54722  0.00744  0.2373  0.627018  0.005731  4.122725  0.007
C  C22  1  0.43551163  0.99991288  0.62891573  1  0.030655  0.017849  -0.010508  -0.03005  0.008591  3.956746  0.013
C  C23  1  0.36589215  0.00119865  0.76673541  1  1.547795  0.007435  0.237288  0.627026  0.00573  4.122694  0.007
C  C24  1  0.93552346  0.62891695  0.99991514  1  0.030804  0.017849  -0.010595  -0.030132  0.00859  3.956835  0.013
C  C25  1  0.86585988  0.76673784  0.00120261  1  1.547192  0.00744  0.237304  0.627062  0.005731  4.12272  0.007
C  C26  1  0.56448823  0.00008659  0.37108293  1  0.030733  0.017849  -0.010488  -0.029976  0.00859  3.956644  0.013
C  C27  1  0.63410771  0.99880082  0.23326325  1  1.547786  0.007435  0.23726  0.62691  0.00573  4.122807  0.007
O  O28  1  0.32284462  0.18009746  0.99771391  1  -1.144549  0.126505  -0.301961  -0.56153  0.059148  2.307145  0.102
O  O29  1  0.17713723  0.00227792  0.81990830  1  -1.144326  0.126568  -0.302192  -0.561898  0.059181  2.306298  0.102
O  O30  1  0.00018355  0.81999318  0.00241876  1  -1.143992  0.126807  -0.303289  -0.563361  0.059165  2.306526  0.102
O  O31  1  0.49982622  0.99758753  0.18001217  1  -1.144808  0.126747  -0.303114  -0.562983  0.059131  2.307127  0.102
O  O32  1  0.67715591  0.81990388  0.00228425  1  -1.144532  0.126504  -0.301988  -0.561571  0.059149  2.307092  0.102
O  O33  1  0.82286114  0.99772154  0.18009152  1  -1.14432  0.126566  -0.30218  -0.561861  0.05918  2.306392  0.102
O  O34  1  0.99981698  0.18000815  0.99758028  1  -1.143993  0.126804  -0.303318  -0.563371  0.059163  2.306452  0.102
O  O35  1  0.50017281  0.00241380  0.81998627  1  -1.144791  0.126747  -0.303127  -0.563044  0.059131  2.307101  0.102
O  O36  1  0.24999772  0.93629548  0.06370912  1  -1.143407  0.302119  -0.565189  -0.879908  0.146449  2.112692  0.235
O  O37  1  0.75000321  0.06370491  0.93629003  1  -1.143406  0.302121  -0.565191  -0.879936  0.146449  2.112677  0.235
