# generated using pymatgen
data_CuH4C4N2Cl
_symmetry_space_group_name_H-M   'P 1'
_cell_length_a   3.62374110
_cell_length_b   8.37620048
_cell_length_c   8.86202204
_cell_angle_alpha   90.29707643
_cell_angle_beta   94.79742123
_cell_angle_gamma   92.27256645
_symmetry_Int_Tables_number   1
_chemical_formula_structural   CuH4C4N2Cl
_chemical_formula_sum   'Cu2 H8 C8 N4 Cl2'
_cell_volume   267.82760915
_cell_formula_units_Z   2
loop_
 _symmetry_equiv_pos_site_id
 _symmetry_equiv_pos_as_xyz
  1  'x, y, z'
loop_
 _atom_site_type_symbol
 _atom_site_label
 _atom_site_symmetry_multiplicity
 _atom_site_fract_x
 _atom_site_fract_y
 _atom_site_fract_z
 _atom_site_occupancy
 _atom_site_hle17_bader_spin_density
 _atom_site_hle17_ddec_charge
 _atom_site_hle17_ddec_spin_density
 _atom_site_hle17_ddec_sum_bond_order
 _atom_site_hle17_magmom
 _atom_site_hse06_10hf_bader_spin_density
 _atom_site_hse06_10hf_ddec_charge
 _atom_site_hse06_10hf_ddec_spin_density
 _atom_site_hse06_10hf_ddec_sum_bond_order
 _atom_site_hse06_10hf_magmom
 _atom_site_hse06_bader_spin_density
 _atom_site_hse06_ddec_charge
 _atom_site_hse06_ddec_spin_density
 _atom_site_hse06_ddec_sum_bond_order
 _atom_site_hse06_magmom
 _atom_site_pbe_bader_spin_density
 _atom_site_pbe_cm5_charge
 _atom_site_pbe_ddec_charge
 _atom_site_pbe_ddec_spin_density
 _atom_site_pbe_ddec_sum_bond_order
 _atom_site_pbe_magmom
Cu  Cu0  1  0.94932653  0.64979452  0.11044212  1  0  0.422687  0  2.053835  0  0  0.305671  0  2.579654  0  0  0.29696  0  2.535146  0  0  0.458286  0.315418  0  2.605349  0
Cu  Cu1  1  0.05068905  0.35020869  0.88957238  1  0  0.422633  0  2.053819  0  0  0.305625  0  2.579569  0  0  0.296894  0  2.535033  0  0  0.458266  0.315365  0  2.60541  0
H  H2  1  0.18454329  0.07355747  0.09717889  1  0  0.093825  0  0.940081  0  0  0.099364  0  1.009637  0  0  0.103388  0  1.006115  0  0  0.11525  0.096262  0  1.012524  0
H  H3  1  0.81548543  0.92643978  0.90282021  1  0  0.093749  0  0.940487  0  0  0.099372  0  1.009907  0  0  0.103388  0  1.006398  0  0  0.115322  0.096274  0  1.012792  0
H  H4  1  0.05302979  0.01162615  0.36135265  1  0  0.115493  0  0.95431  0  0  0.126072  0  1.011063  0  0  0.129385  0  1.009445  0  0  0.10432  0.123661  0  1.012245  0
H  H5  1  0.94695748  0.98837230  0.63864397  1  0  0.115478  0  0.954027  0  0  0.126018  0  1.010825  0  0  0.129327  0  1.009218  0  0  0.104253  0.123608  0  1.012011  0
H  H6  1  0.80911833  0.23829017  0.52002969  1  0  0.111636  0  0.981155  0  0  0.117444  0  1.049133  0  0  0.121907  0  1.046151  0  0  0.095622  0.114105  0  1.051441  0
H  H7  1  0.19081539  0.76169991  0.47994822  1  0  0.111689  0  0.981074  0  0  0.117482  0  1.049055  0  0  0.121948  0  1.046069  0  0  0.095696  0.114146  0  1.05134  0
H  H8  1  0.74188378  0.50522312  0.38999923  1  0  0.084293  0  0.951187  0  0  0.092915  0  1.017315  0  0  0.095771  0  1.015581  0  0  0.112947  0.090689  0  1.018837  0
H  H9  1  0.25808438  0.49477891  0.60999003  1  0  0.084234  0  0.951217  0  0  0.092818  0  1.01738  0  0  0.095713  0  1.015592  0  0  0.112932  0.090595  0  1.018914  0
C  C10  1  0.08443527  0.16470437  0.17000656  1  0  0.096063  0  3.657717  0  0  0.064691  0  3.914025  0  0  0.067827  0  3.927149  0  0  0.046809  0.062293  0  3.906358  0
C  C11  1  0.91556351  0.83532753  0.82999965  1  0  0.096216  0  3.657698  0  0  0.064731  0  3.914072  0  0  0.067913  0  3.92711  0  0  0.046725  0.062317  0  3.90641  0
C  C12  1  0.01097257  0.13146117  0.31854567  1  0  -0.052171  0  3.69051  0  0  -0.069082  0  3.937239  0  0  -0.067566  0  3.95207  0  0  -0.06864  -0.070546  0  3.927866  0
C  C13  1  0.98908210  0.86851696  0.68145756  1  0  -0.052293  0  3.690663  0  0  -0.069106  0  3.937383  0  0  -0.067603  0  3.952246  0  0  -0.068627  -0.070566  0  3.928002  0
C  C14  1  0.88059094  0.25385256  0.40352230  1  0  -0.078526  0  3.705929  0  0  -0.093767  0  3.955178  0  0  -0.09425  0  3.970719  0  0  -0.07553  -0.093773  0  3.945266  0
C  C15  1  0.11938935  0.74613035  0.59647401  1  0  -0.078596  0  3.706377  0  0  -0.093827  0  3.955644  0  0  -0.094322  0  3.97121  0  0  -0.075556  -0.093828  0  3.945724  0
C  C16  1  0.84309617  0.40156165  0.33373775  1  0  0.084297  0  3.684054  0  0  0.054589  0  3.936962  0  0  0.056656  0  3.952324  0  0  0.040688  0.053137  0  3.927428  0
C  C17  1  0.15685135  0.59842603  0.66625865  1  0  0.084497  0  3.684213  0  0  0.054809  0  3.937167  0  0  0.056849  0  3.952519  0  0  0.04068  0.053347  0  3.927652  0
N  N18  1  0.92760574  0.43026604  0.19158423  1  0  -0.153671  0  3.296538  0  0  -0.09956  0  3.607817  0  0  -0.095945  0  3.604778  0  0  -0.254271  -0.103338  0  3.610832  0
N  N19  1  0.07242675  0.56974076  0.80842633  1  0  -0.15379  0  3.296595  0  0  -0.099673  0  3.607867  0  0  -0.09605  0  3.60483  0  0  -0.254268  -0.103457  0  3.610937  0
N  N20  1  0.04197561  0.30908903  0.10704266  1  0  -0.151392  0  3.294158  0  0  -0.096567  0  3.605381  0  0  -0.094044  0  3.603176  0  0  -0.254541  -0.099553  0  3.607857  0
N  N21  1  0.95805252  0.69093092  0.89296444  1  0  -0.151367  0  3.293772  0  0  -0.096536  0  3.605044  0  0  -0.09403  0  3.602864  0  0  -0.254467  -0.099505  0  3.607447  0
Cl  Cl22  1  0.48279175  0.78265100  0.22644119  1  0  -0.572488  0  1.243654  0  0  -0.501726  0  1.610338  0  0  -0.520046  0  1.582648  0  0  -0.320951  -0.488312  0  1.62639  0
Cl  Cl23  1  0.51725381  0.21734864  0.77355847  1  0  -0.572496  0  1.24352  0  0  -0.501756  0  1.610231  0  0  -0.520069  0  1.582525  0  0  -0.320943  -0.488339  0  1.626358  0
