# generated using pymatgen
data_AgH13C14(NO2)2
_symmetry_space_group_name_H-M   'P 1'
_cell_length_a   6.13217545
_cell_length_b   6.82026063
_cell_length_c   7.82641437
_cell_angle_alpha   80.87058036
_cell_angle_beta   76.21662286
_cell_angle_gamma   75.59944375
_symmetry_Int_Tables_number   1
_chemical_formula_structural   AgH13C14(NO2)2
_chemical_formula_sum   'Ag1 H13 C14 N2 O4'
_cell_volume   306.18620804
_cell_formula_units_Z   1
loop_
 _symmetry_equiv_pos_site_id
 _symmetry_equiv_pos_as_xyz
  1  'x, y, z'
loop_
 _atom_site_type_symbol
 _atom_site_label
 _atom_site_symmetry_multiplicity
 _atom_site_fract_x
 _atom_site_fract_y
 _atom_site_fract_z
 _atom_site_occupancy
 _atom_site_pbe_bader_spin_density
 _atom_site_pbe_cm5_charge
 _atom_site_pbe_ddec_charge
 _atom_site_pbe_ddec_spin_density
 _atom_site_pbe_ddec_sum_bond_order
 _atom_site_pbe_magmom
Ag  Ag0  1  0.99977880  0.99894708  0.00144376  1  0  0.481575  0.40211  0  1.685716  0
H  H1  1  0.82414195  0.68677553  0.00151330  1  0  0.289793  0.286828  0  0.983313  0
H  H2  1  0.17749819  0.30888668  0.00171094  1  0  0.288672  0.289225  0  0.981772  0
H  H3  1  0.00778208  0.61598387  0.13789637  1  0  0.293284  0.299795  0  0.977079  0
H  H4  1  0.99291633  0.37878935  0.86564880  1  0  0.293712  0.297828  0  0.975664  0
H  H5  1  0.90605342  0.63993723  0.44513285  1  0  0.108297  0.118903  0  1.034992  0
H  H6  1  0.09362193  0.35721155  0.55675125  1  0  0.106289  0.117089  0  1.039491  0
H  H7  1  0.42405541  0.87846762  0.10306110  1  0  0.091602  0.08742  0  1.065542  0
H  H8  1  0.57866484  0.12375690  0.89700063  1  0  0.090965  0.089001  0  1.068158  0
H  H9  1  0.10318889  0.91261821  0.36513726  1  0  0.095493  0.086353  0  1.051816  0
H  H10  1  0.89832183  0.09043099  0.63358933  1  0  0.093962  0.084802  0  1.053927  0
H  H11  1  0.18052246  0.79636432  0.66792163  1  0  0.095151  0.090636  0  1.057635  0
H  H12  1  0.81807427  0.20669879  0.33135545  1  0  0.09368  0.089727  0  1.06131  0
H  H13  1  0.49272187  0.51196201  0.99056775  1  0  0.287237  0.340401  0  1.013883  0
C  C14  1  0.60326604  0.64812763  0.75220080  1  0  0.226835  0.579226  0  4.125364  0
C  C15  1  0.39826954  0.35119400  0.24556142  1  0  0.210881  0.569129  0  4.17831  0
C  C16  1  0.54901493  0.71806128  0.57440784  1  0  -0.016654  -0.024163  0  3.998426  0
C  C17  1  0.45021212  0.28225580  0.42585085  1  0  -0.016539  -0.016428  0  3.980481  0
C  C18  1  0.73061150  0.70139474  0.42658450  1  0  -0.086256  -0.186817  0  3.912286  0
C  C19  1  0.26960104  0.29749726  0.57454622  1  0  -0.090236  -0.193506  0  3.919091  0
C  C20  1  0.68596707  0.75536807  0.25694408  1  0  0.079721  0.262794  0  4.000576  0
C  C21  1  0.31518343  0.24327962  0.74415349  1  0  0.076161  0.260072  0  4.002822  0
C  C22  1  0.45950386  0.83492150  0.23572240  1  0  -0.096749  -0.169255  0  3.960171  0
C  C23  1  0.54225571  0.16579987  0.76455789  1  0  -0.103573  -0.181182  0  3.972457  0
C  C24  1  0.27915855  0.85200685  0.38316294  1  0  -0.09315  -0.066893  0  4.013938  0
C  C25  1  0.72175573  0.14960510  0.61639635  1  0  -0.096703  -0.071529  0  4.020236  0
C  C26  1  0.32172568  0.79044393  0.55279272  1  0  -0.087597  -0.101544  0  3.966292  0
C  C27  1  0.67771892  0.21060240  0.44706589  1  0  -0.090839  -0.105622  0  3.972433  0
N  N28  1  0.87218865  0.73006755  0.10568074  1  0  -0.625065  -0.546354  0  3.458085  0
N  N29  1  0.12983416  0.26633370  0.89650255  1  0  -0.624607  -0.545587  0  3.455012  0
O  O30  1  0.80500920  0.61614969  0.77567575  1  0  -0.300221  -0.524116  0  2.192001  0
O  O31  1  0.19350234  0.38143479  0.22463550  1  0  -0.316411  -0.548883  0  2.186348  0
O  O32  1  0.42793585  0.61975828  0.88002844  1  0  -0.330404  -0.51639  0  2.372041  0
O  O33  1  0.56996273  0.37885860  0.11880981  1  0  -0.328308  -0.553072  0  2.295224  0
