# generated using pymatgen
data_SiNiH8C8(N2F3)2
_symmetry_space_group_name_H-M   'P 1'
_cell_length_a   6.70371377
_cell_length_b   6.70370114
_cell_length_c   8.06094654
_cell_angle_alpha   89.99997956
_cell_angle_beta   89.99993771
_cell_angle_gamma   90.00020523
_symmetry_Int_Tables_number   1
_chemical_formula_structural   SiNiH8C8(N2F3)2
_chemical_formula_sum   'Si1 Ni1 H8 C8 N4 F6'
_cell_volume   362.25646776
_cell_formula_units_Z   1
loop_
 _symmetry_equiv_pos_site_id
 _symmetry_equiv_pos_as_xyz
  1  'x, y, z'
loop_
 _atom_site_type_symbol
 _atom_site_label
 _atom_site_symmetry_multiplicity
 _atom_site_fract_x
 _atom_site_fract_y
 _atom_site_fract_z
 _atom_site_occupancy
 _atom_site_pbe_cm5_charge
 _atom_site_pbe_ddec_charge
 _atom_site_pbe_ddec_spin_density
 _atom_site_pbe_ddec_sum_bond_order
 _atom_site_pbe_magmom
Si  Si0  1  0.50000076  0.50000517  0.00000008  1  0.242613  1.712816  0.0  3.974267  0.0
Ni  Ni1  1  0.49999957  0.49999628  0.49999924  1  0.677897  0.531734  -0.0  2.721032  0.0
H  H2  1  0.50000065  0.18601602  0.23989586  1  0.135473  0.13513  -0.000904  1.025248  -0.001
H  H3  1  0.81398539  0.49999687  0.23990184  1  0.135486  0.135161  0.000905  1.025208  0.001
H  H4  1  0.50000029  0.81398554  0.23990317  1  0.135525  0.135197  -0.000905  1.025218  -0.001
H  H5  1  0.18601555  0.49999575  0.23989843  1  0.135469  0.13514  0.000905  1.025181  0.001
H  H6  1  0.49999997  0.81398399  0.76010014  1  0.135492  0.135168  -0.000905  1.025234  -0.001
H  H7  1  0.81398358  0.49999979  0.76010130  1  0.135483  0.135133  0.000905  1.025233  0.001
H  H8  1  0.50000034  0.18601298  0.76009780  1  0.1355  0.135175  -0.000904  1.025188  -0.001
H  H9  1  0.18601375  0.49999867  0.76009912  1  0.135506  0.135181  0.000904  1.025188  0.001
C  C10  1  0.50000044  0.10381366  0.35651618  1  0.073218  0.057991  -0.002117  3.808211  -0.002
C  C11  1  0.89617110  0.49999700  0.35651962  1  0.073128  0.057851  0.002117  3.808403  0.002
C  C12  1  0.50000036  0.89616551  0.35651725  1  0.073006  0.057703  -0.002116  3.808806  -0.002
C  C13  1  0.10382075  0.49999708  0.35652001  1  0.073191  0.057999  0.002117  3.808283  0.002
C  C14  1  0.50000019  0.89616995  0.64347858  1  0.073116  0.057807  -0.002117  3.808566  -0.002
C  C15  1  0.89617690  0.49999846  0.64348220  1  0.073151  0.057933  0.002117  3.808353  0.002
C  C16  1  0.50000026  0.10381959  0.64348248  1  0.073172  0.057938  -0.002118  3.808276  -0.002
C  C17  1  0.10382207  0.49999854  0.64348383  1  0.073115  0.057904  0.002117  3.808358  0.002
N  N18  1  0.50000054  0.20744147  0.50000303  1  -0.304535  -0.141893  -0.020915  3.606399  -0.02
N  N19  1  0.79257023  0.49999829  0.49999786  1  -0.304556  -0.142038  0.020917  3.606793  0.02
N  N20  1  0.50000009  0.79257943  0.49999794  1  -0.30445  -0.141886  -0.020919  3.607147  -0.02
N  N21  1  0.20743338  0.49999725  0.50000062  1  -0.304585  -0.142124  0.020917  3.606759  0.02
F  F22  1  0.50000571  0.50001421  0.21594947  1  -0.19526  -0.535501  -0.0  1.3652  0.0
F  F23  1  0.50000536  0.50001564  0.78405149  1  -0.195267  -0.535506  -0.0  1.365215  0.0
F  F24  1  0.32037761  0.32037721  0.00000020  1  -0.245285  -0.537581  0.0  1.06373  0.0
F  F25  1  0.67962237  0.32037499  0.99999960  1  -0.245309  -0.537608  0.0  1.063723  0.0
F  F26  1  0.67962749  0.67962728  0.00000076  1  -0.2451  -0.537385  -0.0  1.063812  0.0
F  F27  1  0.32037140  0.67962365  0.00000218  1  -0.245191  -0.537441  -0.0  1.063748  0.0
