# generated using pymatgen
data_CoH6(C2O3)2
_symmetry_space_group_name_H-M   'P 1'
_cell_length_a   6.79773670
_cell_length_b   7.86676889
_cell_length_c   7.83929643
_cell_angle_alpha   121.24238516
_cell_angle_beta   100.29678479
_cell_angle_gamma   100.45710423
_symmetry_Int_Tables_number   1
_chemical_formula_structural   CoH6(C2O3)2
_chemical_formula_sum   'Co2 H12 C8 O12'
_cell_volume   333.38780641
_cell_formula_units_Z   2
loop_
 _symmetry_equiv_pos_site_id
 _symmetry_equiv_pos_as_xyz
  1  'x, y, z'
loop_
 _atom_site_type_symbol
 _atom_site_label
 _atom_site_symmetry_multiplicity
 _atom_site_fract_x
 _atom_site_fract_y
 _atom_site_fract_z
 _atom_site_occupancy
 _atom_site_hle17_ddec_charge
 _atom_site_hle17_ddec_spin_density
 _atom_site_hle17_ddec_sum_bond_order
 _atom_site_hle17_magmom
 _atom_site_hse06_10hf_bader_charge
 _atom_site_hse06_10hf_bader_spin_density
 _atom_site_hse06_10hf_ddec_charge
 _atom_site_hse06_10hf_ddec_spin_density
 _atom_site_hse06_10hf_ddec_sum_bond_order
 _atom_site_hse06_10hf_magmom
 _atom_site_hse06_ddec_charge
 _atom_site_hse06_ddec_spin_density
 _atom_site_hse06_ddec_sum_bond_order
 _atom_site_hse06_magmom
 _atom_site_pbe_cm5_charge
 _atom_site_pbe_ddec_charge
 _atom_site_pbe_ddec_spin_density
 _atom_site_pbe_ddec_sum_bond_order
 _atom_site_pbe_magmom
Co  Co0  1  0.48303142  0.14066222  0.85019296  1  1.152084  -2.85369  1.806003  -2.627  1.394762  -2.701579  1.120894  -2.857705  2.197973  -2.685  1.190207  -2.890055  2.128507  -2.749  0.653191  1.068726  -2.830909  2.24863  -2.628
Co  Co1  1  0.98191689  0.85008847  0.13966771  1  1.13506  -2.835645  1.794675  -2.614  1.390834  -2.694309  1.107416  -2.846524  2.184257  -2.677  1.179724  -2.884308  2.114976  -2.745  0.64233  1.050112  -2.809238  2.235952  -2.611
H  H2  1  0.49495854  0.51034357  0.03045955  1  0.41775  0.00084  0.876405  0.001  0.642257  -6.6e-05  0.388873  0.000357  0.943951  0.0  0.399975  0.000499  0.927703  0.0  0.295031  0.380998  0.000198  0.955428  0.0
H  H3  1  0.00124199  0.03580184  0.51336805  1  0.416742  0.000947  0.879904  0.001  0.655955  -2.4e-05  0.387769  0.000441  0.946756  0.0  0.398925  0.000541  0.930428  0.0  0.294305  0.379791  0.000311  0.958394  0.0
H  H4  1  0.24935018  0.43696953  0.97504539  1  0.439182  -9.8e-05  0.808748  0.0  0.638361  -0.000887  0.420396  -0.000405  0.866944  -0.001  0.430185  -0.000238  0.855733  -0.001  0.316259  0.413409  -0.000587  0.874712  -0.001
H  H5  1  0.75601524  0.98187589  0.43985206  1  0.435621  -0.000284  0.811371  -0.001  0.636808  -0.001183  0.417349  -0.000611  0.869286  -0.001  0.427056  -0.000409  0.858245  -0.001  0.315376  0.41028  -0.000816  0.877203  -0.001
H  H6  1  0.85586114  0.43756217  0.14853003  1  0.426164  0.000174  0.872031  0.0  0.657752  -0.000581  0.39809  -0.000242  0.933782  -0.001  0.408843  -1e-05  0.918345  -0.001  0.297343  0.390563  -0.000463  0.944515  -0.001
H  H7  1  0.35641971  0.14732129  0.43560313  1  0.421909  -9.7e-05  0.872521  -0.001  0.646816  -0.000905  0.393992  -0.000426  0.937781  -0.001  0.404683  -0.000203  0.922353  -0.001  0.296414  0.386568  -0.000643  0.948385  -0.002
H  H8  1  0.81636599  0.20313824  0.09370895  1  0.423137  0.001014  0.876905  0.001  0.649873  3.2e-05  0.394632  0.000416  0.93937  0.0  0.406553  0.000578  0.92222  0.0  0.296593  0.386232  0.000199  0.951369  0.0
H  H9  1  0.31624780  0.09565167  0.20305368  1  0.420766  0.000659  0.879636  0.001  0.642785  -5.5e-05  0.392544  0.000118  0.942211  0.0  0.404541  0.000295  0.924946  0.0  0.295843  0.384015  -8e-05  0.954378  0.0
H  H10  1  0.28446240  0.47284074  0.64926744  1  0.124044  7.9e-05  0.944786  0.0  0.113866  -0.000578  0.132611  -0.000156  1.0049  0.0  0.136604  -6.3e-05  1.002545  0.0  0.112026  0.12936  -0.000249  1.007431  0.0
H  H11  1  0.78837764  0.65210409  0.47558552  1  0.123088  4.1e-05  0.947997  0.0  0.098486  -0.000682  0.132037  -0.000226  1.007674  0.0  0.135974  -0.000122  1.005351  0.0  0.111872  0.12886  -0.000306  1.010082  0.0
H  H12  1  0.22551730  0.46741648  0.34315811  1  0.134323  -0.000216  0.939196  0.0  0.136553  -0.000412  0.142627  -0.00015  0.997257  0.0  0.147294  -7.5e-05  0.994464  0.0  0.111707  0.138826  -0.000238  1.000082  0.0
H  H13  1  0.73215687  0.34479062  0.46701107  1  0.135318  -0.000336  0.938249  0.0  0.148723  -0.000613  0.142534  -0.000231  0.997755  0.0  0.147244  -0.000123  0.994872  0.0  0.110987  0.138871  -0.000347  1.000492  0.0
C  C14  1  0.26378339  0.77688453  0.87382505  1  0.703664  0.00832  3.845238  0.006  1.574595  -0.003383  0.662122  -0.001501  4.141585  -0.002  0.700044  -0.001396  4.13228  -0.002  0.220687  0.634733  -0.000373  4.147729  -0.001
C  C15  1  0.76242040  0.87175447  0.77851859  1  0.703238  0.00975  3.845352  0.007  1.586983  -0.002354  0.660985  -0.000691  4.142956  -0.002  0.699087  -0.001088  4.132952  -0.002  0.220311  0.633316  0.001273  4.149899  0.0
C  C16  1  0.26839070  0.61482855  0.66378150  1  -0.143186  -0.005021  3.637778  -0.008  -0.126084  -0.009894  -0.165302  -0.004624  3.897754  -0.006  -0.169595  -0.003489  3.911468  -0.005  -0.076908  -0.16431  -0.0049  3.891333  -0.007
C  C17  1  0.77144414  0.66432918  0.61689719  1  -0.144627  -0.004334  3.644538  -0.007  -0.005277  -0.008718  -0.166983  -0.00413  3.905017  -0.006  -0.170722  -0.00346  3.917995  -0.005  -0.077657  -0.165924  -0.003961  3.898799  -0.006
C  C18  1  0.22882127  0.60911280  0.48665088  1  -0.174088  0.00364  3.660134  0.0  0.064391  -0.000156  -0.196335  0.001433  3.920075  0.0  -0.202456  0.002085  3.932459  0.0  -0.086329  -0.193236  0.001557  3.914781  -0.001
C  C19  1  0.73320212  0.48652084  0.60903455  1  -0.178787  0.004516  3.666215  0.001  -0.067263  0.000737  -0.200635  0.00243  3.927488  0.0  -0.206432  0.002873  3.939106  0.001  -0.087589  -0.19815  0.003163  3.922723  0.0
C  C20  1  0.16190855  0.76129190  0.45384782  1  0.696768  0.010039  3.840252  0.007  1.561003  -0.002397  0.653978  -0.001359  4.135816  -0.002  0.692955  -0.001261  4.123823  -0.002  0.219951  0.624919  0.000708  4.145464  0.0
C  C21  1  0.66643924  0.45166794  0.76044629  1  0.699703  0.011532  3.83972  0.007  1.56365  -0.001619  0.656701  -0.000388  4.135375  -0.002  0.695928  -0.000756  4.123215  -0.002  0.219815  0.627569  0.001688  4.144938  0.0
O  O22  1  0.35891761  0.97335985  0.96778758  1  -0.626051  -0.028992  2.079101  -0.057  -1.186944  -0.048441  -0.580848  -0.024094  2.328352  -0.043  -0.61495  -0.018553  2.314652  -0.034  -0.292757  -0.555552  -0.029849  2.336877  -0.052
O  O23  1  0.85936101  0.96960420  0.97646728  1  -0.626887  -0.026932  2.072227  -0.051  -1.194403  -0.044111  -0.581195  -0.022081  2.321215  -0.037  -0.615198  -0.017422  2.306598  -0.029  -0.296263  -0.556298  -0.026638  2.331788  -0.044
O  O24  1  0.15846270  0.70080638  0.95248453  1  -0.645445  -0.034793  2.058306  -0.063  -1.183345  -0.049926  -0.610437  -0.025159  2.316201  -0.04  -0.647142  -0.018676  2.305054  -0.03  -0.310311  -0.581691  -0.032633  2.323261  -0.053
O  O25  1  0.65159383  0.94474707  0.70091161  1  -0.638718  -0.036967  2.073288  -0.069  -1.183218  -0.053943  -0.603274  -0.027124  2.332442  -0.046  -0.639458  -0.020439  2.320996  -0.035  -0.306557  -0.575402  -0.034535  2.339239  -0.058
O  O26  1  0.20392732  0.95611313  0.60049942  1  -0.653941  -0.025827  2.105891  -0.048  -1.204286  -0.041602  -0.60832  -0.020715  2.36126  -0.033  -0.641908  -0.016087  2.346771  -0.026  -0.307744  -0.583621  -0.025605  2.371328  -0.041
O  O27  1  0.70401464  0.59846769  0.95480172  1  -0.656138  -0.024493  2.09862  -0.045  -1.205588  -0.038875  -0.61056  -0.019342  2.35416  -0.03  -0.644392  -0.014948  2.340239  -0.024  -0.30972  -0.584998  -0.024203  2.363285  -0.037
O  O28  1  0.04868014  0.68155770  0.26417767  1  -0.643348  -0.034753  2.129886  -0.066  -1.199562  -0.054557  -0.598656  -0.027407  2.388082  -0.047  -0.632402  -0.020914  2.373209  -0.037  -0.302932  -0.573386  -0.034135  2.398502  -0.058
O  O29  1  0.55871772  0.26111248  0.68143640  1  -0.645026  -0.038086  2.118041  -0.07  -1.195621  -0.059426  -0.59944  -0.030477  2.375859  -0.051  -0.633012  -0.023438  2.360898  -0.039  -0.304365  -0.574529  -0.037857  2.386567  -0.063
O  O30  1  0.74770239  0.31235273  0.11637765  1  -0.81806  -0.033372  1.940503  -0.058  -1.274247  -0.056289  -0.779398  -0.028525  2.141455  -0.045  -0.809269  -0.022  2.106917  -0.035  -0.570092  -0.755469  -0.035299  2.164755  -0.055
O  O31  1  0.24843135  0.12084577  0.31371821  1  -0.814694  -0.028818  1.938031  -0.052  -1.261583  -0.049363  -0.776249  -0.024746  2.139907  -0.04  -0.805414  -0.019008  2.105918  -0.032  -0.569836  -0.752107  -0.030982  2.161847  -0.049
O  O32  1  0.37569302  0.41087585  0.02453199  1  -0.801897  -0.019733  1.844057  -0.038  -1.251903  -0.037484  -0.765936  -0.018443  2.033693  -0.031  -0.788703  -0.01446  2.001452  -0.025  -0.566111  -0.747979  -0.022738  2.055687  -0.037
O  O33  1  0.88313569  0.03429629  0.41639101  1  -0.797667  -0.019064  1.848911  -0.037  -1.265128  -0.036356  -0.761983  -0.017715  2.037194  -0.03  -0.784768  -0.013871  2.005207  -0.024  -0.56487  -0.744498  -0.021515  2.059699  -0.035
