# generated using pymatgen
data_KCrH12C6(NO3)4
_symmetry_space_group_name_H-M   'P 1'
_cell_length_a   4.72442250
_cell_length_b   7.31779106
_cell_length_c   11.96783428
_cell_angle_alpha   64.71035531
_cell_angle_beta   73.61320770
_cell_angle_gamma   85.52416370
_symmetry_Int_Tables_number   1
_chemical_formula_structural   KCrH12C6(NO3)4
_chemical_formula_sum   'K1 Cr1 H12 C6 N4 O12'
_cell_volume   358.47449618
_cell_formula_units_Z   1
loop_
 _symmetry_equiv_pos_site_id
 _symmetry_equiv_pos_as_xyz
  1  'x, y, z'
loop_
 _atom_site_type_symbol
 _atom_site_label
 _atom_site_symmetry_multiplicity
 _atom_site_fract_x
 _atom_site_fract_y
 _atom_site_fract_z
 _atom_site_occupancy
 _atom_site_hle17_ddec_charge
 _atom_site_hle17_ddec_spin_density
 _atom_site_hle17_ddec_sum_bond_order
 _atom_site_hle17_magmom
 _atom_site_hse06_10hf_ddec_charge
 _atom_site_hse06_10hf_ddec_spin_density
 _atom_site_hse06_10hf_ddec_sum_bond_order
 _atom_site_hse06_10hf_magmom
 _atom_site_hse06_ddec_charge
 _atom_site_hse06_ddec_spin_density
 _atom_site_hse06_ddec_sum_bond_order
 _atom_site_hse06_magmom
 _atom_site_pbe_cm5_charge
 _atom_site_pbe_ddec_charge
 _atom_site_pbe_ddec_spin_density
 _atom_site_pbe_ddec_sum_bond_order
 _atom_site_pbe_magmom
K  K0  1  0.50000052  0.00000293  0.99999989  1  0.932906  8.2e-05  0.42772  0.0  0.887114  0.000114  0.606056  0.0  0.900631  0.000102  0.585144  0.0  0.762085  0.876905  0.00014  0.621161  0.0
Cr  Cr1  1  0.50000306  0.00000473  0.49999895  1  1.489376  3.157216  2.200345  3.061  1.4951  2.933276  2.604146  2.862  1.580463  2.961339  2.549248  2.9  1.009625  1.435887  2.89943  2.644738  2.817
H  H2  1  0.17596061  0.66865343  0.55890056  1  0.412849  -0.000345  0.889026  0.002  0.380166  -0.000152  0.960011  0.002  0.392271  -0.000268  0.943138  0.002  0.288361  0.371731  -3.7e-05  0.971735  0.002
H  H3  1  0.82404099  0.33134736  0.44109958  1  0.412857  -0.000345  0.889013  0.002  0.380183  -0.000152  0.959989  0.002  0.392284  -0.000268  0.943122  0.002  0.288378  0.371746  -3.7e-05  0.971716  0.002
H  H4  1  0.12016919  0.86261329  0.43253372  1  0.434234  -0.00043  0.863415  0.002  0.407039  0.000176  0.922051  0.003  0.41958  -5.4e-05  0.903747  0.002  0.300967  0.398146  0.000413  0.935052  0.003
H  H5  1  0.87982802  0.13738742  0.56746607  1  0.434246  -0.00043  0.863369  0.002  0.407063  0.000176  0.921988  0.003  0.419603  -5.3e-05  0.903685  0.002  0.300987  0.398169  0.000413  0.93499  0.003
H  H6  1  0.15333498  0.34573604  0.62355208  1  0.336011  -0.000307  0.877149  0.0  0.323244  -0.000312  0.928742  0.0  0.329993  -0.000326  0.923367  0.0  0.309907  0.318431  -0.000297  0.932718  0.0
H  H7  1  0.84667110  0.65426525  0.37644580  1  0.335967  -0.000307  0.877224  0.0  0.323213  -0.000312  0.928795  0.0  0.329958  -0.000326  0.923425  0.0  0.309889  0.318399  -0.000297  0.932777  0.0
H  H8  1  0.82646502  0.42263973  0.68779318  1  0.345785  -0.000135  0.878991  0.0  0.328545  -0.000121  0.940592  0.0  0.33663  -0.000125  0.933274  0.0  0.304949  0.322805  -0.000113  0.945893  0.0
H  H9  1  0.17354111  0.57736006  0.31220501  1  0.345749  -0.000136  0.879023  0.0  0.328512  -0.00012  0.940631  0.0  0.336595  -0.000126  0.933313  0.0  0.304935  0.322767  -0.000113  0.945934  0.0
H  H10  1  0.00170149  0.35857521  0.96330163  1  0.349726  -2.6e-05  0.885224  0.0  0.330114  3e-06  0.950769  0.0  0.338242  3e-06  0.943582  0.0  0.316747  0.324322  4e-06  0.956009  0.0
H  H11  1  0.99829811  0.64142288  0.03669678  1  0.349708  -2.6e-05  0.885226  0.0  0.330096  2e-06  0.950768  0.0  0.338226  3e-06  0.943578  0.0  0.316728  0.324306  4e-06  0.956013  0.0
H  H12  1  0.76140654  0.48236304  0.86997739  1  0.35532  4e-06  0.90822  0.0  0.330855  3.1e-05  0.979697  0.0  0.340571  1.2e-05  0.970775  0.0  0.304213  0.323974  5.1e-05  0.98601  0.0
H  H13  1  0.23859524  0.51763502  0.13002163  1  0.35528  4e-06  0.908241  0.0  0.330869  3.1e-05  0.979644  0.0  0.340585  1.2e-05  0.970722  0.0  0.304221  0.32399  5.1e-05  0.985957  0.0
C  C14  1  0.16725489  0.92285989  0.75275529  1  0.563727  0.004954  3.861164  0.007  0.520633  0.004922  4.167542  0.006  0.551857  0.002697  4.157465  0.004  0.220602  0.49873  0.007544  4.174505  0.008
C  C15  1  0.83274024  0.07713770  0.24724539  1  0.563805  0.004958  3.861048  0.007  0.520651  0.004923  4.167522  0.006  0.551875  0.002698  4.157445  0.004  0.220612  0.498745  0.007545  4.174482  0.008
C  C16  1  0.42945741  0.78016153  0.76330554  1  0.525362  0.006863  3.90208  0.009  0.485276  0.006963  4.204515  0.008  0.515697  0.004067  4.197304  0.006  0.210053  0.464028  0.010108  4.209313  0.01
C  C17  1  0.57053772  0.21983606  0.23669514  1  0.525472  0.006866  3.901826  0.009  0.485377  0.006965  4.204314  0.008  0.515798  0.004068  4.197098  0.006  0.210101  0.46413  0.01011  4.209105  0.01
C  C18  1  0.14432127  0.37583041  0.78181698  1  0.844941  0.000167  3.862819  0.0  0.779365  8.9e-05  4.166451  0.0  0.813039  4.2e-05  4.161583  0.0  0.322517  0.756403  0.00015  4.169084  0.0
C  C19  1  0.85568260  0.62416899  0.21818321  1  0.845012  0.000161  3.862821  0.0  0.779448  8.8e-05  4.166445  0.0  0.813116  4.2e-05  4.161581  0.0  0.322527  0.756491  0.00015  4.169059  0.0
N  N20  1  0.94908342  0.40218826  0.87911814  1  -0.762146  -0.000338  3.094842  0.0  -0.724507  3e-06  3.343688  0.0  -0.747511  -3e-05  3.334478  0.0  -0.594994  -0.708474  6.8e-05  3.349844  0.0
N  N21  1  0.05091607  0.59781106  0.12088170  1  -0.762108  -0.000337  3.094844  0.0  -0.724503  3e-06  3.343627  0.0  -0.747508  -3.1e-05  3.334421  0.0  -0.594972  -0.70848  6.8e-05  3.349788  0.0
N  N22  1  0.05242044  0.43333769  0.66945845  1  -0.740385  -0.001908  2.966039  -0.001  -0.682072  -0.00016  3.17032  0.0  -0.702563  -0.000197  3.159924  0.0  -0.582627  -0.667825  -7e-05  3.177485  0.0
N  N23  1  0.94758346  0.56666185  0.33054086  1  -0.740337  -0.001904  2.966156  -0.001  -0.682052  -0.00016  3.170446  0.0  -0.702524  -0.000195  3.160037  0.0  -0.582608  -0.667799  -7e-05  3.1776  0.0
O  O24  1  0.59110881  0.78802610  0.65307305  1  -0.610731  -0.032544  2.040236  -0.045  -0.58816  0.0048  2.31051  -0.011  -0.622877  0.002541  2.303173  -0.012  -0.345986  -0.563762  0.007426  2.315475  -0.01
O  O25  1  0.40889056  0.21197444  0.34692823  1  -0.610761  -0.032541  2.040136  -0.045  -0.588144  0.004802  2.310393  -0.011  -0.622862  0.002542  2.303052  -0.012  -0.345981  -0.563747  0.007427  2.315352  -0.01
O  O26  1  0.98936416  0.92769037  0.84887583  1  -0.567097  -0.003181  2.002589  -0.002  -0.53368  0.003787  2.236508  0.005  -0.553585  0.003021  2.228565  0.004  -0.354433  -0.519833  0.005091  2.241996  0.006
O  O27  1  0.01063541  0.07230580  0.15112550  1  -0.567134  -0.003182  2.002587  -0.002  -0.533692  0.003787  2.236547  0.005  -0.553599  0.003023  2.228606  0.004  -0.354446  -0.519848  0.005092  2.242032  0.006
O  O28  1  0.16019399  0.03208628  0.63335115  1  -0.654343  -0.032285  2.130649  -0.045  -0.616828  -0.000713  2.391772  -0.017  -0.651713  -0.001746  2.380961  -0.016  -0.3325  -0.592445  0.000826  2.399371  -0.016
O  O29  1  0.83980104  0.96791267  0.36665009  1  -0.654396  -0.032286  2.130648  -0.045  -0.616842  -0.000713  2.391785  -0.017  -0.651725  -0.001746  2.380973  -0.016  -0.332496  -0.59246  0.000826  2.399382  -0.016
O  O30  1  0.46895863  0.67071186  0.86921132  1  -0.511525  -0.00078  2.011633  0.0  -0.466618  0.007064  2.228729  0.008  -0.486883  0.005748  2.222336  0.007  -0.271087  -0.452507  0.008925  2.23307  0.01
O  O31  1  0.53103885  0.32928297  0.13078884  1  -0.511549  -0.00078  2.011563  0.0  -0.466697  0.007065  2.228741  0.008  -0.486962  0.00575  2.222346  0.007  -0.271111  -0.452589  0.008928  2.23308  0.01
O  O32  1  0.26793918  0.79999051  0.48175134  1  -0.839289  -0.017969  1.96822  -0.031  -0.812802  0.006916  2.184713  -0.009  -0.839694  0.003972  2.14984  -0.01  -0.589419  -0.793805  0.009994  2.209256  -0.007
O  O33  1  0.73206019  0.20001181  0.51824788  1  -0.839286  -0.017965  1.968183  -0.031  -0.812809  0.006922  2.184681  -0.009  -0.839698  0.003975  2.14981  -0.01  -0.589446  -0.793813  0.009999  2.209225  -0.007
O  O34  1  0.39348810  0.30648398  0.78635850  1  -0.693609  -0.000395  1.886036  0.0  -0.651711  4e-06  2.120792  0.0  -0.673637  -8.4e-05  2.110703  0.0  -0.393148  -0.636336  0.000126  2.127404  0.0
O  O35  1  0.60651371  0.69351244  0.21364170  1  -0.693635  -0.000392  1.88601  0.0  -0.651747  5e-06  2.120765  0.0  -0.673673  -8.3e-05  2.11068  0.0  -0.393154  -0.636377  0.000126  2.127372  0.0
