# generated using pymatgen
data_AgH7C7(NO)2
_symmetry_space_group_name_H-M   'P 1'
_cell_length_a   7.41013195
_cell_length_b   7.69178065
_cell_length_c   7.69171173
_cell_angle_alpha   61.70422529
_cell_angle_beta   79.12295672
_cell_angle_gamma   79.12298431
_symmetry_Int_Tables_number   1
_chemical_formula_structural   AgH7C7(NO)2
_chemical_formula_sum   'Ag2 H14 C14 N4 O4'
_cell_volume   376.58064112
_cell_formula_units_Z   2
loop_
 _symmetry_equiv_pos_site_id
 _symmetry_equiv_pos_as_xyz
  1  'x, y, z'
loop_
 _atom_site_type_symbol
 _atom_site_label
 _atom_site_symmetry_multiplicity
 _atom_site_fract_x
 _atom_site_fract_y
 _atom_site_fract_z
 _atom_site_occupancy
 _atom_site_pbe_bader_spin_density
 _atom_site_pbe_cm5_charge
 _atom_site_pbe_ddec_charge
 _atom_site_pbe_ddec_spin_density
 _atom_site_pbe_ddec_sum_bond_order
 _atom_site_pbe_magmom
Ag  Ag0  1  0.49996359  0.00000437  0.49999255  1  0  0.454185  0.407886  0  1.758008  0
Ag  Ag1  1  0.00003585  0.50000500  0.00000304  1  0  0.454248  0.407994  0  1.758021  0
H  H2  1  0.15967761  0.04672834  0.44655634  1  0  0.299008  0.290541  0  0.942303  0
H  H3  1  0.34030384  0.55345085  0.95327406  1  0  0.299063  0.290576  0  0.942554  0
H  H4  1  0.84028304  0.95331358  0.55342697  1  0  0.299142  0.290736  0  0.942669  0
H  H5  1  0.65969541  0.44659194  0.04666685  1  0  0.29907  0.290636  0  0.942531  0
H  H6  1  0.22077839  0.79751102  0.54024182  1  0  0.297984  0.299057  0  0.955795  0
H  H7  1  0.27921465  0.45977565  0.20247142  1  0  0.298032  0.299099  0  0.955879  0
H  H8  1  0.77922513  0.20240872  0.45978756  1  0  0.298086  0.299118  0  0.956279  0
H  H9  1  0.72078654  0.54021248  0.79756065  1  0  0.298048  0.299113  0  0.956285  0
H  H10  1  0.24999630  0.62250529  0.37749207  1  0  0.110442  0.145159  0  1.060229  0
H  H11  1  0.74999764  0.37746396  0.62253272  1  0  0.110505  0.145383  0  1.060162  0
H  H12  1  0.27655577  0.25361055  0.06313734  1  0  0.088761  0.087618  0  1.107287  0
H  H13  1  0.22344002  0.93686706  0.74638322  1  0  0.08875  0.08755  0  1.107406  0
H  H14  1  0.72344165  0.74639399  0.93687151  1  0  0.088816  0.087693  0  1.107147  0
H  H15  1  0.77656335  0.06313606  0.25360334  1  0  0.088784  0.087599  0  1.107317  0
C  C16  1  0.24999135  0.76070352  0.23930667  1  0  -0.101571  -0.263475  0  3.871025  0
C  C17  1  0.75000696  0.23928781  0.76070611  1  0  -0.10168  -0.263944  0  3.871287  0
C  C18  1  0.25860868  0.11636863  0.06381530  1  0  -0.115226  -0.24796  0  4.012354  0
C  C19  1  0.24138677  0.93619192  0.88363122  1  0  -0.115157  -0.247809  0  4.012573  0
C  C20  1  0.74142425  0.88363815  0.93617184  1  0  -0.115296  -0.248364  0  4.013152  0
C  C21  1  0.75858834  0.06387829  0.11634304  1  0  -0.115253  -0.248172  0  4.012869  0
C  C22  1  0.24999278  0.11644857  0.88354745  1  0  -0.021181  0.007057  0  3.985028  0
C  C23  1  0.75000243  0.88363713  0.11637787  1  0  -0.021171  0.007269  0  3.985589  0
C  C24  1  0.25000240  0.30941971  0.69058038  1  0  0.194654  0.586524  0  4.19406  0
C  C25  1  0.74999684  0.69070189  0.30930386  1  0  0.194553  0.586848  0  4.193519  0
C  C26  1  0.25071437  0.94029800  0.24113199  1  0  0.078111  0.289201  0  4.03794  0
C  C27  1  0.24928796  0.75885018  0.05970558  1  0  0.078055  0.289152  0  4.037382  0
C  C28  1  0.74921324  0.05971127  0.75889420  1  0  0.078295  0.289759  0  4.03843  0
C  C29  1  0.75077447  0.24112081  0.94025886  1  0  0.078219  0.289853  0  4.038685  0
N  N30  1  0.24979899  0.93578314  0.42954013  1  0  -0.614305  -0.562393  0  3.43861  0
N  N31  1  0.25020147  0.57044170  0.06421431  1  0  -0.614429  -0.562501  0  3.439135  0
N  N32  1  0.75030509  0.06421873  0.57055249  1  0  -0.614324  -0.562785  0  3.439912  0
N  N33  1  0.74970514  0.42944557  0.93576929  1  0  -0.614279  -0.562839  0  3.439638  0
O  O34  1  0.25822997  0.29596093  0.53000380  1  0  -0.352652  -0.59757  0  2.166196  0
O  O35  1  0.24177098  0.46999576  0.70404121  1  0  -0.352688  -0.597614  0  2.16612  0
O  O36  1  0.74179303  0.70392478  0.47000716  1  0  -0.352844  -0.598098  0  2.16548  0
O  O37  1  0.75823609  0.52999711  0.29610206  1  0  -0.352756  -0.597894  0  2.165821  0
