# generated using pymatgen
data_Al2H8C13(SO6)2
_symmetry_space_group_name_H-M   'P 1'
_cell_length_a   6.86861361
_cell_length_b   8.84080593
_cell_length_c   12.91093972
_cell_angle_alpha   71.72749801
_cell_angle_beta   71.65171734
_cell_angle_gamma   74.53803296
_symmetry_Int_Tables_number   1
_chemical_formula_structural   Al2H8C13(SO6)2
_chemical_formula_sum   'Al2 H8 C13 S2 O12'
_cell_volume   694.25468812
_cell_formula_units_Z   1
loop_
 _symmetry_equiv_pos_site_id
 _symmetry_equiv_pos_as_xyz
  1  'x, y, z'
loop_
 _atom_site_type_symbol
 _atom_site_label
 _atom_site_symmetry_multiplicity
 _atom_site_fract_x
 _atom_site_fract_y
 _atom_site_fract_z
 _atom_site_occupancy
 _atom_site_pbe_bader_charge
 _atom_site_pbe_bader_spin_density
 _atom_site_pbe_cm5_charge
 _atom_site_pbe_ddec_charge
 _atom_site_pbe_ddec_spin_density
 _atom_site_pbe_ddec_sum_bond_order
 _atom_site_pbe_magmom
Al  Al0  1  0.50196700  0.50158917  0.49654584  1  2.510954  0  0.410969  1.636969  0  2.567017  0
Al  Al1  1  0.00056714  0.50093738  0.49814525  1  2.506702  0  0.403875  1.65124  0  2.556749  0
H  H2  1  0.78521246  0.63580250  0.36320673  1  0.62804  0  0.349187  0.427365  0  0.857606  0
H  H3  1  0.24247965  0.33065101  0.61575893  1  0.600585  0  0.353316  0.43191  0  0.848565  0
H  H4  1  0.75486462  0.51650586  0.12505212  1  0.11254  0  0.110504  0.129878  0  1.012481  0
H  H5  1  0.79509106  0.86759069  0.49762110  1  0.651199  0  0.317152  0.359761  0  0.945471  0
H  H6  1  0.20522658  0.13426308  0.49601018  1  0.63911  0  0.315651  0.35637  0  0.953038  0
H  H7  1  0.19405074  0.50460851  0.78493746  1  0.106584  0  0.101534  0.155893  0  1.013343  0
H  H8  1  0.06221838  0.58873330  0.90296315  1  0.035328  0  0.090849  0.130476  0  1.004059  0
H  H9  1  0.13155173  0.37489344  0.92291219  1  0.024662  0  0.093035  0.132285  0  0.99332  0
C  C10  1  0.36482013  0.51427612  0.29940750  1  1.611608  0  0.264359  0.662647  0  4.115316  0
C  C11  1  0.16042793  0.78671304  0.48856141  1  1.536341  0  0.261251  0.611111  0  4.089312  0
C  C12  1  0.63523078  0.49131801  0.69454491  1  1.602299  0  0.266088  0.668453  0  4.107973  0
C  C13  1  0.84092814  0.21406063  0.50732871  1  1.53465  0  0.259095  0.608633  0  4.08952  0
C  C14  1  0.89894749  0.04303882  0.50152325  1  0.633615  0  0.060366  0.033433  0  4.068615  0
C  C15  1  0.10211529  0.95779091  0.49417641  1  0.556347  0  0.061904  0.03209  0  4.070208  0
C  C16  1  0.38186110  0.49528744  0.89202601  1  0.100555  0  -0.006804  0.153205  0  4.011974  0
C  C17  1  0.61627881  0.51169356  0.10339181  1  0.06936  0  -0.087485  -0.128844  0  3.962219  0
C  C18  1  0.57330924  0.49673605  0.81320133  1  -0.197979  0  -0.024463  -0.202348  0  3.95072  0
C  C19  1  0.42340316  0.51025297  0.18063888  1  -0.197246  0  -0.020468  -0.124631  0  3.972381  0
C  C20  1  0.60320995  0.50658816  0.99735135  1  -0.199551  0  -0.0239  -0.017504  0  4.090974  0
C  C21  1  0.40077782  0.50069631  0.99662838  1  -0.219943  0  -0.024487  -0.078439  0  4.054758  0
C  C22  1  0.18266482  0.49027897  0.87364120  1  -0.0407  0  -0.245468  -0.41787  0  4.01642  0
S  S23  1  0.77019193  0.50591780  0.86615223  1  0.298105  0  0.09784  0.12824  0  3.045021  0
S  S24  1  0.22651841  0.50169393  0.12566834  1  0.248309  0  0.083852  0.122711  0  2.804376  0
O  O25  1  0.50704996  0.51337819  0.34368390  1  -1.251322  0  -0.235999  -0.586171  0  2.296128  0
O  O26  1  0.01310812  0.71999658  0.48943953  1  -1.249052  0  -0.238383  -0.607082  0  2.382742  0
O  O27  1  0.83086199  0.48512262  0.64729667  1  -1.26775  0  -0.242466  -0.609534  0  2.361308  0
O  O28  1  0.65222886  0.28324382  0.51230881  1  -1.252929  0  -0.228536  -0.563933  0  2.354667  0
O  O29  1  0.49697697  0.49190324  0.64777001  1  -1.256737  0  -0.228399  -0.575989  0  2.334676  0
O  O30  1  0.98832146  0.28047912  0.50725712  1  -1.261394  0  -0.240002  -0.613383  0  2.382378  0
O  O31  1  0.16985750  0.51930975  0.34793189  1  -1.269677  0  -0.243572  -0.614074  0  2.365431  0
O  O32  1  0.34916556  0.71775998  0.48293228  1  -1.251034  0  -0.225873  -0.55458  0  2.350508  0
O  O33  1  0.75845028  0.57826333  0.44227310  1  -1.434172  0  -0.447551  -0.98088  0  2.132914  0
O  O34  1  0.24593689  0.42332765  0.55104666  1  -1.405965  0  -0.449245  -0.983732  0  2.136463  0
O  O35  1  0.73768131  0.98167153  0.50289129  1  -1.130323  0  -0.343795  -0.387288  0  2.344659  0
O  O36  1  0.26335868  0.01960920  0.49235289  1  -1.121117  0  -0.34393  -0.386387  0  2.346051  0
