# generated using pymatgen
data_LiH6C6NO3
_symmetry_space_group_name_H-M   'P 1'
_cell_length_a   6.20240332
_cell_length_b   6.89197127
_cell_length_c   9.89172508
_cell_angle_alpha   69.59438298
_cell_angle_beta   80.11842686
_cell_angle_gamma   60.50033508
_symmetry_Int_Tables_number   1
_chemical_formula_structural   LiH6C6NO3
_chemical_formula_sum   'Li2 H12 C12 N2 O6'
_cell_volume   344.92775777
_cell_formula_units_Z   2
loop_
 _symmetry_equiv_pos_site_id
 _symmetry_equiv_pos_as_xyz
  1  'x, y, z'
loop_
 _atom_site_type_symbol
 _atom_site_label
 _atom_site_symmetry_multiplicity
 _atom_site_fract_x
 _atom_site_fract_y
 _atom_site_fract_z
 _atom_site_occupancy
 _atom_site_hle17_bader_spin_density
 _atom_site_hle17_ddec_charge
 _atom_site_hle17_ddec_spin_density
 _atom_site_hle17_ddec_sum_bond_order
 _atom_site_hle17_magmom
 _atom_site_hse06_10hf_bader_spin_density
 _atom_site_hse06_10hf_ddec_charge
 _atom_site_hse06_10hf_ddec_spin_density
 _atom_site_hse06_10hf_ddec_sum_bond_order
 _atom_site_hse06_10hf_magmom
 _atom_site_hse06_bader_spin_density
 _atom_site_hse06_ddec_charge
 _atom_site_hse06_ddec_spin_density
 _atom_site_hse06_ddec_sum_bond_order
 _atom_site_hse06_magmom
 _atom_site_pbe_bader_spin_density
 _atom_site_pbe_cm5_charge
 _atom_site_pbe_ddec_charge
 _atom_site_pbe_ddec_spin_density
 _atom_site_pbe_ddec_sum_bond_order
 _atom_site_pbe_magmom
Li  Li0  1  0.67604279  0.54273277  0.02029133  1  0  0.85648  0  0.389964  0  0  0.816768  0  0.496062  0  0  0.826839  0  0.477923  0  0  0.4918  0.809298  0  0.509387  0
Li  Li1  1  0.17602009  0.56313734  0.97958131  1  0  0.856559  0  0.389771  0  0  0.816739  0  0.496021  0  0  0.826825  0  0.477861  0  0  0.491705  0.809256  0  0.509374  0
H  H2  1  0.52703972  0.23437889  0.15283526  1  0  0.38415  0  0.944633  0  0  0.340365  0  1.028168  0  0  0.352278  0  1.011546  0  0  0.288504  0.332078  0  1.039691  0
H  H3  1  0.02669820  0.38729959  0.84714352  1  0  0.384498  0  0.944217  0  0  0.340591  0  1.027978  0  0  0.352481  0  1.011385  0  0  0.288658  0.332228  0  1.039546  0
H  H4  1  0.63838716  0.19568106  0.00108172  1  0  0.431549  0  0.827318  0  0  0.417777  0  0.870041  0  0  0.425501  0  0.858647  0  0  0.334883  0.412131  0  0.878476  0
H  H5  1  0.13829497  0.19708214  0.99888936  1  0  0.430869  0  0.827654  0  0  0.417341  0  0.87052  0  0  0.424998  0  0.859254  0  0  0.334732  0.411463  0  0.879363  0
H  H6  1  0.61384695  0.45884936  0.46439743  1  0  0.102537  0  0.983222  0  0  0.110224  0  1.051449  0  0  0.113156  0  1.050425  0  0  0.106819  0.108026  0  1.05241  0
H  H7  1  0.11417129  0.92332561  0.53556857  1  0  0.102778  0  0.980987  0  0  0.109555  0  1.050507  0  0  0.112517  0  1.049453  0  0  0.106732  0.107522  0  1.051212  0
H  H8  1  0.21275401  0.62988618  0.35542052  1  0  0.120793  0  0.937978  0  0  0.129364  0  1.000106  0  0  0.133548  0  0.997354  0  0  0.115719  0.126069  0  1.002711  0
H  H9  1  0.71266696  0.98595689  0.64468172  1  0  0.121308  0  0.938402  0  0  0.12987  0  1.000448  0  0  0.134083  0  0.997649  0  0  0.115775  0.126701  0  1.002814  0
H  H10  1  0.70569483  0.34914766  0.72709737  1  0  0.075922  0  0.921065  0  0  0.089264  0  0.977794  0  0  0.09177  0  0.975918  0  0  0.125621  0.087027  0  0.979823  0
H  H11  1  0.20647867  0.07595691  0.27286829  1  0  0.075686  0  0.921022  0  0  0.088666  0  0.978189  0  0  0.091166  0  0.976316  0  0  0.125463  0.086663  0  0.98004  0
H  H12  1  0.27362008  0.52488563  0.62433499  1  0  0.075208  0  0.955173  0  0  0.083346  0  1.022696  0  0  0.085764  0  1.02074  0  0  0.117485  0.081427  0  1.024252  0
H  H13  1  0.77382969  0.14967061  0.37575218  1  0  0.074915  0  0.955503  0  0  0.08303  0  1.023101  0  0  0.08548  0  1.021103  0  0  0.117424  0.081377  0  1.02432  0
C  C14  1  0.76216303  0.47392382  0.49696453  1  0  -0.136482  0  3.742707  0  0  -0.158807  0  3.993604  0  0  -0.164493  0  4.016854  0  0  -0.082343  -0.155228  0  3.978249  0
C  C15  1  0.26253361  0.97090540  0.50303150  1  0  -0.136153  0  3.740623  0  0  -0.15735  0  3.991372  0  0  -0.163006  0  4.014562  0  0  -0.082194  -0.153746  0  3.975681  0
C  C16  1  0.90686814  0.55222696  0.39109314  1  0  -0.007677  0  3.706729  0  0  0.013396  0  3.932521  0  0  0.011071  0  3.953955  0  0  0.005061  0.015082  0  3.918032  0
C  C17  1  0.40691831  0.94372488  0.60891650  1  0  -0.007457  0  3.705817  0  0  0.012825  0  3.932547  0  0  0.010477  0  3.953932  0  0  0.005469  0.014599  0  3.917857  0
C  C18  1  0.09579505  0.57113363  0.43587144  1  0  -0.128783  0  3.712403  0  0  -0.151662  0  3.962869  0  0  -0.157027  0  3.984259  0  0  -0.07624  -0.148213  0  3.948747  0
C  C19  1  0.59581856  0.00753838  0.56417483  1  0  -0.130227  0  3.712309  0  0  -0.153163  0  3.963543  0  0  -0.158547  0  3.984937  0  0  -0.076372  -0.149391  0  3.948749  0
C  C20  1  0.86645163  0.60321576  0.23243508  1  0  0.662808  0  3.962043  0  0  0.612524  0  4.270947  0  0  0.645065  0  4.26197  0  0  0.211081  0.590625  0  4.276124  0
C  C21  1  0.36614271  0.83625876  0.76753883  1  0  0.663549  0  3.963314  0  0  0.613415  0  4.272176  0  0  0.646007  0  4.263096  0  0  0.211296  0.591459  0  4.277274  0
C  C22  1  0.81281085  0.41403863  0.64150764  1  0  0.121848  0  3.718699  0  0  0.088925  0  3.977837  0  0  0.094048  0  3.995763  0  0  0.052295  0.085585  0  3.965954  0
C  C23  1  0.31336791  0.05545782  0.35849737  1  0  0.121098  0  3.717351  0  0  0.088408  0  3.976243  0  0  0.093533  0  3.9941  0  0  0.051966  0.08511  0  3.964224  0
C  C24  1  0.13195548  0.51012644  0.58308075  1  0  0.114813  0  3.719068  0  0  0.084096  0  3.975883  0  0  0.089626  0  3.993606  0  0  0.048979  0.080521  0  3.963929  0
C  C25  1  0.63215263  0.09364096  0.41695203  1  0  0.114888  0  3.719198  0  0  0.08398  0  3.976349  0  0  0.08949  0  3.99396  0  0  0.049119  0.08051  0  3.963898  0
N  N26  1  0.99426984  0.43224024  0.68407505  1  0  -0.292944  0  3.206177  0  0  -0.225232  0  3.446168  0  0  -0.239197  0  3.462664  0  0  -0.299077  -0.215439  0  3.434735  0
N  N27  1  0.49475106  0.11640124  0.31593136  1  0  -0.291928  0  3.203443  0  0  -0.224392  0  3.443621  0  0  -0.238253  0  3.459981  0  0  -0.299059  -0.214696  0  3.432268  0
O  O28  1  0.69980312  0.56647783  0.20431665  1  0  -0.71738  0  1.899421  0  0  -0.673524  0  2.130843  0  0  -0.695324  0  2.118449  0  0  -0.395633  -0.658312  0  2.139565  0
O  O29  1  0.19953907  0.77135011  0.79563020  1  0  -0.718145  0  1.899885  0  0  -0.674358  0  2.131463  0  0  -0.696183  0  2.11905  0  0  -0.396  -0.658823  0  2.139587  0
O  O30  1  0.00650732  0.67046510  0.14214044  1  0  -0.72016  0  1.882473  0  0  -0.676642  0  2.10661  0  0  -0.697239  0  2.092862  0  0  -0.390145  -0.661994  0  2.116085  0
O  O31  1  0.50613593  0.81313522  0.85790262  1  0  -0.720292  0  1.883622  0  0  -0.676782  0  2.107625  0  0  -0.697336  0  2.093749  0  0  -0.389954  -0.662132  0  2.116966  0
O  O32  1  0.53713341  0.32132722  0.04349032  1  0  -0.942751  0  1.825226  0  0  -0.899718  0  2.009085  0  0  -0.914977  0  1.97575  0  0  -0.6547  -0.888811  0  2.032569  0
O  O33  1  0.03692051  0.36512994  0.95639486  1  0  -0.941878  0  1.825032  0  0  -0.898841  0  2.009263  0  0  -0.914143  0  1.976086  0  0  -0.654871  -0.887972  0  2.033373  0
