# generated using pymatgen
data_CdH4(CO3)2
_symmetry_space_group_name_H-M   'P 1'
_cell_length_a   6.05465834
_cell_length_b   6.41101850
_cell_length_c   8.86969207
_cell_angle_alpha   74.80748381
_cell_angle_beta   73.21417298
_cell_angle_gamma   79.40627388
_symmetry_Int_Tables_number   1
_chemical_formula_structural   CdH4(CO3)2
_chemical_formula_sum   'Cd2 H8 C4 O12'
_cell_volume   315.91351294
_cell_formula_units_Z   2
loop_
 _symmetry_equiv_pos_site_id
 _symmetry_equiv_pos_as_xyz
  1  'x, y, z'
loop_
 _atom_site_type_symbol
 _atom_site_label
 _atom_site_symmetry_multiplicity
 _atom_site_fract_x
 _atom_site_fract_y
 _atom_site_fract_z
 _atom_site_occupancy
 _atom_site_hle17_bader_spin_density
 _atom_site_hle17_ddec_charge
 _atom_site_hle17_ddec_spin_density
 _atom_site_hle17_ddec_sum_bond_order
 _atom_site_hle17_magmom
 _atom_site_hse06_10hf_bader_spin_density
 _atom_site_hse06_10hf_ddec_charge
 _atom_site_hse06_10hf_ddec_spin_density
 _atom_site_hse06_10hf_ddec_sum_bond_order
 _atom_site_hse06_10hf_magmom
 _atom_site_hse06_bader_spin_density
 _atom_site_hse06_ddec_charge
 _atom_site_hse06_ddec_spin_density
 _atom_site_hse06_ddec_sum_bond_order
 _atom_site_hse06_magmom
 _atom_site_pbe_bader_spin_density
 _atom_site_pbe_cm5_charge
 _atom_site_pbe_ddec_charge
 _atom_site_pbe_ddec_spin_density
 _atom_site_pbe_ddec_sum_bond_order
 _atom_site_pbe_magmom
Cd  Cd0  1  0.04003869  0.31376083  0.70843916  1  0  1.273892  0  1.579874  0  0  1.101459  0  2.021234  0  0  1.15731  0  1.96246  0  0  0.774472  1.061212  0  2.061885  0
Cd  Cd1  1  0.95995630  0.68623287  0.29156861  1  0  1.273861  0  1.579811  0  0  1.101425  0  2.021161  0  0  1.157271  0  1.962395  0  0  0.774458  1.06118  0  2.061807  0
H  H2  1  0.09698389  0.86367511  0.68159066  1  0  0.435361  0  0.862169  0  0  0.402042  0  0.928413  0  0  0.413404  0  0.912072  0  0  0.29118  0.393991  0  0.939965  0
H  H3  1  0.90300334  0.13632666  0.31840912  1  0  0.435291  0  0.862296  0  0  0.401969  0  0.928542  0  0  0.413326  0  0.91221  0  0  0.291181  0.393919  0  0.940093  0
H  H4  1  0.33706411  0.95739266  0.64165343  1  0  0.426  0  0.820004  0  0  0.407747  0  0.874811  0  0  0.416059  0  0.86589  0  0  0.317922  0.401808  0  0.881218  0
H  H5  1  0.66293108  0.04261543  0.35833793  1  0  0.42602  0  0.819799  0  0  0.407759  0  0.874635  0  0  0.416071  0  0.86571  0  0  0.317941  0.401819  0  0.881044  0
H  H6  1  0.76624889  0.01060127  0.93321926  1  0  0.423825  0  0.879486  0  0  0.391066  0  0.945648  0  0  0.403141  0  0.928077  0  0  0.284943  0.382475  0  0.95812  0
H  H7  1  0.23376269  0.98938257  0.06679174  1  0  0.423944  0  0.879348  0  0  0.391241  0  0.945392  0  0  0.403308  0  0.927826  0  0  0.285128  0.382658  0  0.957849  0
H  H8  1  0.60740883  0.17386402  0.82112692  1  0  0.425244  0  0.874681  0  0  0.394535  0  0.936887  0  0  0.406295  0  0.919762  0  0  0.287089  0.386148  0  0.949089  0
H  H9  1  0.39257427  0.82612813  0.17888008  1  0  0.42542  0  0.874487  0  0  0.394651  0  0.936758  0  0  0.406406  0  0.919639  0  0  0.287203  0.386271  0  0.948947  0
C  C10  1  0.96243898  0.61430914  0.95025022  1  0  0.558127  0  3.887063  0  0  0.50883  0  4.181497  0  0  0.538962  0  4.175572  0  0  0.21579  0.488284  0  4.184836  0
C  C11  1  0.03757247  0.38569231  0.04974154  1  0  0.558007  0  3.887975  0  0  0.508738  0  4.182354  0  0  0.538852  0  4.176464  0  0  0.215781  0.488194  0  4.185688  0
C  C12  1  0.43335354  0.57478751  0.43841760  1  0  0.557517  0  3.899598  0  0  0.508476  0  4.195284  0  0  0.538953  0  4.189532  0  0  0.212508  0.48768  0  4.198493  0
C  C13  1  0.56666794  0.42518616  0.56157544  1  0  0.557179  0  3.899769  0  0  0.508231  0  4.19537  0  0  0.538705  0  4.189619  0  0  0.212437  0.487437  0  4.198579  0
O  O14  1  0.98603442  0.63401654  0.79968371  1  0  -0.62573  0  2.074461  0  0  -0.560223  0  2.311559  0  0  -0.588434  0  2.300173  0  0  -0.31334  -0.540433  0  2.318791  0
O  O15  1  0.01396483  0.36600129  0.20030719  1  0  -0.625673  0  2.074513  0  0  -0.560212  0  2.311625  0  0  -0.588414  0  2.300249  0  0  -0.313353  -0.540419  0  2.318852  0
O  O16  1  0.88477084  0.76594226  0.02426074  1  0  -0.579798  0  2.09738  0  0  -0.514628  0  2.328954  0  0  -0.541957  0  2.31984  0  0  -0.290662  -0.495541  0  2.334722  0
O  O17  1  0.11522862  0.23408869  0.97573429  1  0  -0.5797  0  2.0981  0  0  -0.514502  0  2.329585  0  0  -0.541828  0  2.320473  0  0  -0.290598  -0.495423  0  2.335346  0
O  O18  1  0.22742611  0.53685223  0.45677656  1  0  -0.624141  0  2.126894  0  0  -0.551879  0  2.386969  0  0  -0.583102  0  2.376094  0  0  -0.309249  -0.529851  0  2.393626  0
O  O19  1  0.77257100  0.46312333  0.54322084  1  0  -0.623827  0  2.127206  0  0  -0.551589  0  2.387249  0  0  -0.58281  0  2.376389  0  0  -0.30911  -0.529568  0  2.393906  0
O  O20  1  0.53877926  0.72005249  0.33026843  1  0  -0.603214  0  2.094294  0  0  -0.541762  0  2.326736  0  0  -0.568775  0  2.316853  0  0  -0.29755  -0.522855  0  2.333042  0
O  O21  1  0.46122313  0.27992156  0.66973839  1  0  -0.603129  0  2.093992  0  0  -0.541808  0  2.326462  0  0  -0.568826  0  2.316578  0  0  -0.297628  -0.522895  0  2.33277  0
O  O22  1  0.18468032  0.99084062  0.61884412  1  0  -0.815714  0  1.821109  0  0  -0.756313  0  2.005123  0  0  -0.778122  0  1.975598  0  0  -0.574012  -0.74088  0  2.02564  0
O  O23  1  0.81531786  0.00918693  0.38114281  1  0  -0.815656  0  1.821051  0  0  -0.756252  0  2.005067  0  0  -0.778059  0  1.975544  0  0  -0.574034  -0.740823  0  2.025583  0
O  O24  1  0.71908233  0.16608031  0.88583761  1  0  -0.851479  0  1.856996  0  0  -0.789431  0  2.038935  0  0  -0.813808  0  2.003284  0  0  -0.599137  -0.772113  0  2.06374  0
O  O25  1  0.28091040  0.83394783  0.11418071  1  0  -0.851624  0  1.856869  0  0  -0.789569  0  2.038923  0  0  -0.81393  0  2.00328  0  0  -0.599359  -0.772275  0  2.063744  0
