# generated using pymatgen
data_CoH8C8(SN4)2
_symmetry_space_group_name_H-M   'P 1'
_cell_length_a   5.52443649
_cell_length_b   6.32260511
_cell_length_c   8.58705503
_cell_angle_alpha   101.74659376
_cell_angle_beta   100.89912881
_cell_angle_gamma   93.33134333
_symmetry_Int_Tables_number   1
_chemical_formula_structural   CoH8C8(SN4)2
_chemical_formula_sum   'Co1 H8 C8 S2 N8'
_cell_volume   286.89791235
_cell_formula_units_Z   1
loop_
 _symmetry_equiv_pos_site_id
 _symmetry_equiv_pos_as_xyz
  1  'x, y, z'
loop_
 _atom_site_type_symbol
 _atom_site_label
 _atom_site_symmetry_multiplicity
 _atom_site_fract_x
 _atom_site_fract_y
 _atom_site_fract_z
 _atom_site_occupancy
 _atom_site_hle17_ddec_charge
 _atom_site_hle17_ddec_spin_density
 _atom_site_hle17_ddec_sum_bond_order
 _atom_site_hle17_magmom
 _atom_site_hse06_10hf_ddec_charge
 _atom_site_hse06_10hf_ddec_spin_density
 _atom_site_hse06_10hf_ddec_sum_bond_order
 _atom_site_hse06_10hf_magmom
 _atom_site_hse06_ddec_charge
 _atom_site_hse06_ddec_spin_density
 _atom_site_hse06_ddec_sum_bond_order
 _atom_site_hse06_magmom
 _atom_site_pbe_cm5_charge
 _atom_site_pbe_ddec_charge
 _atom_site_pbe_ddec_spin_density
 _atom_site_pbe_ddec_sum_bond_order
 _atom_site_pbe_magmom
Co  Co0  1  0.99999290  0.00000225  0.00000409  1  0.601153  1.009125  2.878337  0.872  0.625082  0.977708  3.295082  0.88  0.697492  1.003806  3.216032  0.923  0.659776  0.572971  0.941351  3.350824  0.825
H  H1  1  0.56477647  0.97943700  0.68677711  1  0.092391  -0.000178  0.979847  0.0  0.092166  -0.000186  1.058263  0.0  0.094389  -0.000144  1.055021  0.0  0.127199  0.090326  -0.00022  1.060919  0.0
H  H2  1  0.43522198  0.02056810  0.31322193  1  0.092426  -0.000178  0.979799  0.0  0.092203  -0.000186  1.058202  0.0  0.094427  -0.000144  1.054959  0.0  0.127218  0.09036  -0.00022  1.060861  0.0
H  H3  1  0.28863710  0.30145666  0.81333412  1  0.105732  0.000767  0.972505  0.0  0.108597  0.00085  1.048858  0.0  0.110761  0.000639  1.046066  0.0  0.132235  0.106677  0.001075  1.051148  0.0
H  H4  1  0.71136300  0.69854678  0.18666719  1  0.105711  0.000767  0.972501  0.0  0.108578  0.000851  1.048869  0.0  0.110743  0.000639  1.046072  0.0  0.13224  0.106657  0.001075  1.051158  0.0
H  H5  1  0.07857830  0.30374983  0.38907831  1  0.091461  -0.000242  0.951567  0.0  0.102453  -0.000187  1.020899  0.0  0.103001  -0.000158  1.021371  0.0  0.110728  0.101842  -0.000208  1.020814  0.0
H  H6  1  0.92142564  0.69624062  0.61091448  1  0.091533  -0.000242  0.951567  0.0  0.102538  -0.000187  1.020852  0.0  0.103063  -0.000158  1.021344  0.0  0.110754  0.101927  -0.000208  1.02077  0.0
H  H7  1  0.27214200  0.46835901  0.56769189  1  0.091556  0.000376  0.940845  0.0  0.100791  0.000472  1.015475  0.0  0.102176  0.000336  1.01462  0.0  0.114099  0.099655  0.000622  1.016069  0.0
H  H8  1  0.72786399  0.53163304  0.43230138  1  0.091549  0.000378  0.940876  0.0  0.100772  0.000472  1.015501  0.0  0.102159  0.000336  1.01464  0.0  0.114101  0.099635  0.000622  1.016095  0.0
C  C9  1  0.73040447  0.07888956  0.68549838  1  0.180851  -0.004142  3.697478  -0.003  0.129285  -0.001882  3.994963  -0.001  0.142781  -0.001685  4.00763  -0.001  0.142442  0.120137  -0.001864  3.98646  -0.002
C  C10  1  0.26959520  0.92111065  0.31449889  1  0.180844  -0.004148  3.697426  -0.003  0.129272  -0.001882  3.994893  -0.001  0.14277  -0.001686  4.007553  -0.001  0.142454  0.120126  -0.001864  3.986385  -0.002
C  C11  1  0.10060995  0.23761405  0.75194026  1  0.174751  -0.006502  3.579992  -0.004  0.099856  -0.002188  3.844468  -0.001  0.116683  -0.001746  3.855919  -0.001  0.166284  0.088523  -0.002409  3.837293  -0.001
C  C12  1  0.89939013  0.76238942  0.24805756  1  0.174866  -0.00651  3.579866  -0.004  0.099888  -0.002188  3.844376  -0.001  0.116723  -0.001746  3.855817  -0.001  0.166266  0.088556  -0.002409  3.8372  -0.001
C  C13  1  0.07996802  0.40658433  0.50873607  1  -0.030891  5.5e-05  3.607495  0.0  -0.108181  0.000187  3.864176  0.0  -0.105152  0.000116  3.874219  0.0  -0.045829  -0.109624  0.000263  3.857113  0.001
C  C14  1  0.92003696  0.59339960  0.49125817  1  -0.030967  5.5e-05  3.607669  0.0  -0.108204  0.000187  3.864188  0.0  -0.105163  0.000117  3.874267  0.0  -0.045848  -0.109644  0.000263  3.85712  0.001
C  C15  1  0.58198194  0.24268033  0.10450008  1  0.263654  -0.034801  3.985882  -0.028  0.26294  -0.01008  4.291957  -0.01  0.289901  -0.009737  4.304902  -0.009  0.144929  0.242662  -0.010794  4.282646  -0.011
C  C16  1  0.41803252  0.75731968  0.89550823  1  0.263396  -0.034839  3.985746  -0.028  0.262676  -0.010087  4.291852  -0.01  0.289643  -0.009747  4.304809  -0.009  0.144832  0.242398  -0.010803  4.282537  -0.011
S  S17  1  0.33478848  0.35195950  0.14381866  1  -0.283132  0.036472  2.193429  0.055  -0.297323  0.025332  2.535042  0.036  -0.31814  0.015651  2.526148  0.024  -0.110304  -0.278165  0.037766  2.540444  0.049
S  S18  1  0.66520779  0.64805692  0.85619235  1  -0.282966  0.036457  2.193925  0.055  -0.297136  0.025319  2.535516  0.036  -0.31794  0.015641  2.526607  0.024  -0.110235  -0.277965  0.037753  2.540885  0.049
N  N19  1  0.98618004  0.27583237  0.60924795  1  0.05094  -0.000718  3.553477  -0.001  0.175169  -0.000791  3.731915  -0.001  0.164685  -0.000624  3.755809  0.0  -0.133725  0.180411  -0.000874  3.718573  -0.001
N  N20  1  0.01381676  0.72415975  0.39074657  1  0.050727  -0.000716  3.553674  -0.001  0.175104  -0.000791  3.731913  -0.001  0.164583  -0.000624  3.755866  0.0  -0.133782  0.180346  -0.000874  3.718568  -0.001
N  N21  1  0.75086577  0.17553757  0.56458089  1  -0.262981  -0.000269  2.85343  0.0  -0.261011  -0.000332  3.122371  0.0  -0.270201  -0.000278  3.136276  0.0  -0.218963  -0.254428  -0.000209  3.113074  0.0
N  N22  1  0.24912918  0.82445458  0.43541226  1  -0.262976  -0.000266  2.853524  0.0  -0.261025  -0.000332  3.122402  0.0  -0.270208  -0.000278  3.136307  0.0  -0.219  -0.254443  -0.000209  3.113103  0.0
N  N23  1  0.94220126  0.11215834  0.80333282  1  -0.310698  -0.01154  3.37348  -0.008  -0.270201  -0.008087  3.675917  -0.006  -0.30313  -0.009212  3.693113  -0.007  -0.34579  -0.248266  -0.006198  3.664564  -0.005
N  N24  1  0.05779067  0.88785329  0.19666994  1  -0.31068  -0.01154  3.373438  -0.008  -0.270164  -0.008089  3.675882  -0.006  -0.303092  -0.009214  3.693075  -0.007  -0.345731  -0.248228  -0.006199  3.664525  -0.005
N  N25  1  0.75739948  0.15760592  0.07360082  1  -0.464166  0.016174  3.248041  0.03  -0.4471  0.008041  3.554158  0.015  -0.476513  0.004943  3.556645  0.011  -0.413172  -0.42626  0.012378  3.55224  0.02
N  N26  1  0.24258675  0.84240410  0.92640684  1  -0.464082  0.016204  3.247264  0.03  -0.447025  0.008056  3.553407  0.015  -0.476442  0.004955  3.555894  0.011  -0.413179  -0.426185  0.012395  3.551489  0.02
