# generated using pymatgen
data_RbH3C4S(NO)2
_symmetry_space_group_name_H-M   'P 1'
_cell_length_a   6.99061797
_cell_length_b   6.99047261
_cell_length_c   7.69111297
_cell_angle_alpha   94.37700674
_cell_angle_beta   94.37039142
_cell_angle_gamma   114.67008024
_symmetry_Int_Tables_number   1
_chemical_formula_structural   RbH3C4S(NO)2
_chemical_formula_sum   'Rb2 H6 C8 S2 N4 O4'
_cell_volume   338.11562101
_cell_formula_units_Z   2
loop_
 _symmetry_equiv_pos_site_id
 _symmetry_equiv_pos_as_xyz
  1  'x, y, z'
loop_
 _atom_site_type_symbol
 _atom_site_label
 _atom_site_symmetry_multiplicity
 _atom_site_fract_x
 _atom_site_fract_y
 _atom_site_fract_z
 _atom_site_occupancy
 _atom_site_pbe_bader_spin_density
 _atom_site_pbe_cm5_charge
 _atom_site_pbe_ddec_charge
 _atom_site_pbe_ddec_spin_density
 _atom_site_pbe_ddec_sum_bond_order
 _atom_site_pbe_magmom
Rb  Rb0  1  0.74870048  0.25128841  0.49998923  1  0  0.634675  0.797663  0  0.756474  0
Rb  Rb1  1  0.25129656  0.74871516  0.50000045  1  0  0.634682  0.797691  0  0.756439  0
H  H2  1  0.55591604  0.90662120  0.09998339  1  0  0.30541  0.294635  0  0.995818  0
H  H3  1  0.09335611  0.44410148  0.90000267  1  0  0.305256  0.294351  0  0.995788  0
H  H4  1  0.44408942  0.09336498  0.90000558  1  0  0.305221  0.294389  0  0.995731  0
H  H5  1  0.90664218  0.55589214  0.10000843  1  0  0.305098  0.29409  0  0.995824  0
H  H6  1  0.84272928  0.84269447  0.64696658  1  0  0.098015  0.142179  0  1.08502  0
H  H7  1  0.15730238  0.15731680  0.35304206  1  0  0.097986  0.142151  0  1.085111  0
C  C8  1  0.73216757  0.73217638  0.12466662  1  0  0.252556  0.440229  0  4.083668  0
C  C9  1  0.26784224  0.26782382  0.87533551  1  0  0.252589  0.440377  0  4.083399  0
C  C10  1  0.68209968  0.88909904  0.86288982  1  0  0.204148  0.546068  0  4.162048  0
C  C11  1  0.11085765  0.31792124  0.13710455  1  0  0.203927  0.545773  0  4.16347  0
C  C12  1  0.31790068  0.11088216  0.13710876  1  0  0.20439  0.546432  0  4.162017  0
C  C13  1  0.88912838  0.68208369  0.86289347  1  0  0.204036  0.546  0  4.162749  0
C  C14  1  0.81157801  0.81153886  0.78056790  1  0  -0.153698  -0.510981  0  3.979841  0
C  C15  1  0.18842057  0.18845177  0.21943389  1  0  -0.153769  -0.511149  0  3.979346  0
S  S16  1  0.69852063  0.69853828  0.33760168  1  0  -0.237729  -0.564913  0  2.166948  0
S  S17  1  0.30147058  0.30145867  0.66240002  1  0  -0.237737  -0.564981  0  2.167016  0
N  N18  1  0.64892531  0.84511444  0.03544525  1  0  -0.380068  -0.377259  0  3.50526  0
N  N19  1  0.15487667  0.35106784  0.96459202  1  0  -0.379935  -0.377079  0  3.5051  0
N  N20  1  0.35104766  0.15488707  0.96456187  1  0  -0.379786  -0.377038  0  3.505303  0
N  N21  1  0.84511694  0.64895147  0.03540254  1  0  -0.379642  -0.376678  0  3.505154  0
O  O22  1  0.59199449  0.99473151  0.79239946  1  0  -0.426409  -0.615529  0  2.212405  0
O  O23  1  0.00524393  0.40802499  0.20759703  1  0  -0.426236  -0.615159  0  2.213568  0
O  O24  1  0.40800061  0.00526738  0.20758580  1  0  -0.426631  -0.615795  0  2.212771  0
O  O25  1  0.99477104  0.59196720  0.79241007  1  0  -0.42635  -0.615468  0  2.212533  0
