# generated using pymatgen
data_CuH4C6(NCl)2
_symmetry_space_group_name_H-M   'P 1'
_cell_length_a   3.79429318
_cell_length_b   7.80350957
_cell_length_c   13.79429118
_cell_angle_alpha   97.29624567
_cell_angle_beta   95.50215041
_cell_angle_gamma   96.95548608
_symmetry_Int_Tables_number   1
_chemical_formula_structural   CuH4C6(NCl)2
_chemical_formula_sum   'Cu2 H8 C12 N4 Cl4'
_cell_volume   399.56792537
_cell_formula_units_Z   2
loop_
 _symmetry_equiv_pos_site_id
 _symmetry_equiv_pos_as_xyz
  1  'x, y, z'
loop_
 _atom_site_type_symbol
 _atom_site_label
 _atom_site_symmetry_multiplicity
 _atom_site_fract_x
 _atom_site_fract_y
 _atom_site_fract_z
 _atom_site_occupancy
 _atom_site_hle17_ddec_charge
 _atom_site_hle17_ddec_spin_density
 _atom_site_hle17_ddec_sum_bond_order
 _atom_site_hle17_magmom
 _atom_site_hse06_10hf_ddec_charge
 _atom_site_hse06_10hf_ddec_spin_density
 _atom_site_hse06_10hf_ddec_sum_bond_order
 _atom_site_hse06_10hf_magmom
 _atom_site_hse06_ddec_charge
 _atom_site_hse06_ddec_spin_density
 _atom_site_hse06_ddec_sum_bond_order
 _atom_site_hse06_magmom
 _atom_site_pbe_cm5_charge
 _atom_site_pbe_ddec_charge
 _atom_site_pbe_ddec_spin_density
 _atom_site_pbe_ddec_sum_bond_order
 _atom_site_pbe_magmom
Cu  Cu0  1  0.69333803  0.99191949  0.11579069  1  0.714717  -0.606904  1.983024  -0.436  0.725556  -0.714981  2.370496  -0.558  0.820131  -0.784945  2.29049  -0.645  0.518138  0.674879  -0.672597  2.418965  -0.509
Cu  Cu1  1  0.30667346  0.00807683  0.88420597  1  0.714536  -0.606849  1.983063  -0.436  0.725535  -0.714989  2.370478  -0.558  0.820111  -0.784952  2.290472  -0.645  0.518138  0.674862  -0.672561  2.418992  -0.509
H  H2  1  0.62106721  0.97874834  0.32577110  1  0.100374  -0.001251  0.945325  -0.002  0.107346  -0.001242  1.008951  -0.002  0.109931  -0.000907  1.005894  -0.001  0.115108  0.105332  -0.001494  1.011219  -0.002
H  H3  1  0.37892248  0.02125572  0.67422556  1  0.1005  -0.00125  0.945379  -0.002  0.107464  -0.001242  1.008969  -0.002  0.110048  -0.000906  1.005913  -0.001  0.115174  0.105458  -0.001494  1.011241  -0.002
H  H4  1  0.78361083  0.62267189  0.08943510  1  0.095034  -0.001993  0.942772  -0.002  0.104931  -0.002141  1.00328  -0.002  0.107891  -0.001576  0.999649  -0.001  0.10866  0.102718  -0.002566  1.005853  -0.002
H  H5  1  0.21638943  0.37732181  0.91056399  1  0.095022  -0.001994  0.942829  -0.002  0.104945  -0.002141  1.003303  -0.002  0.107883  -0.001576  0.999698  -0.001  0.108678  0.102734  -0.002566  1.005875  -0.002
H  H6  1  0.63287307  0.75386002  0.44071584  1  0.134668  -0.00042  0.951314  -0.001  0.142173  -0.000439  1.011851  -0.001  0.145861  -0.000316  1.00982  0.0  0.11718  0.139484  -0.000536  1.013501  -0.001
H  H7  1  0.36711136  0.24614403  0.55928286  1  0.134659  -0.000419  0.951263  -0.001  0.142123  -0.00044  1.011852  -0.001  0.14581  -0.000316  1.009821  0.0  0.117128  0.139435  -0.000537  1.013502  -0.001
H  H8  1  0.82439812  0.38580016  0.19483691  1  0.123461  -0.00101  0.992775  -0.001  0.132501  -0.001186  1.053552  -0.001  0.136373  -0.00091  1.050708  -0.001  0.093347  0.129555  -0.0014  1.055849  -0.001
H  H9  1  0.17560552  0.61419616  0.80516463  1  0.123468  -0.00101  0.992931  -0.001  0.132502  -0.001186  1.05371  -0.001  0.136372  -0.00091  1.050864  -0.001  0.093343  0.129553  -0.001401  1.056005  -0.001
C  C10  1  0.66065770  0.84521762  0.30017094  1  0.137292  0.00988  3.651522  0.007  0.109244  0.002065  3.902942  0.002  0.117914  0.004431  3.921719  0.003  0.052214  0.103796  0.000329  3.890781  0.0
C  C11  1  0.33933456  0.15477603  0.69982505  1  0.137106  0.009896  3.651462  0.007  0.109117  0.002068  3.902884  0.002  0.117784  0.004443  3.921655  0.003  0.052145  0.103666  0.000327  3.890747  0.0
C  C12  1  0.75407414  0.64577127  0.16757809  1  0.131713  0.007795  3.661614  0.006  0.102158  0.000257  3.915622  0.0  0.110312  0.002852  3.934138  0.002  0.044726  0.096996  -0.001706  3.903818  -0.001
C  C13  1  0.24592227  0.35422765  0.83242562  1  0.131747  0.007811  3.661531  0.006  0.102209  0.00026  3.915533  0.0  0.110375  0.002863  3.934054  0.002  0.04472  0.097058  -0.001708  3.903733  -0.001
C  C14  1  0.67080588  0.72069412  0.36367887  1  -0.122891  -0.009944  3.647245  -0.01  -0.143664  -0.004909  3.889923  -0.006  -0.150155  -0.00451  3.909046  -0.005  -0.062172  -0.13931  -0.005102  3.877004  -0.006
C  C15  1  0.32918316  0.27930735  0.63631976  1  -0.122737  -0.00996  3.647108  -0.01  -0.14349  -0.004908  3.889783  -0.006  -0.149977  -0.004525  3.908901  -0.005  -0.062075  -0.139133  -0.005103  3.876869  -0.006
C  C16  1  0.77406526  0.51446991  0.22604440  1  -0.114555  -0.010806  3.65579  -0.011  -0.133933  -0.005776  3.89324  -0.006  -0.139132  -0.005188  3.910844  -0.006  -0.070625  -0.130512  -0.006071  3.881457  -0.006
C  C17  1  0.22593445  0.48553162  0.77395741  1  -0.114536  -0.010824  3.655811  -0.011  -0.133908  -0.005775  3.893233  -0.006  -0.139102  -0.005203  3.910829  -0.006  -0.07061  -0.130482  -0.006073  3.88145  -0.006
C  C18  1  0.72784076  0.55194238  0.32578024  1  0.079946  0.009958  3.82784  0.007  0.096763  0.003605  4.057853  0.003  0.100042  0.004869  4.076588  0.003  0.02518  0.094544  0.002633  4.045319  0.002
C  C19  1  0.27215659  0.44806042  0.67421942  1  0.079833  0.009985  3.827929  0.007  0.096664  0.0036  4.057933  0.003  0.09994  0.004897  4.076669  0.003  0.025167  0.094453  0.002632  4.045406  0.002
C  C20  1  0.73651128  0.41760762  0.38701557  1  0.287537  -0.002412  3.696012  -0.002  0.272054  -0.001167  3.968161  -0.001  0.282274  -0.001003  3.984628  -0.001  0.199596  0.265095  -0.001224  3.95715  -0.001
C  C21  1  0.26348650  0.58239652  0.61298854  1  0.287497  -0.002393  3.695942  -0.002  0.272007  -0.001169  3.968099  -0.001  0.282229  -0.000985  3.984563  -0.001  0.199592  0.265044  -0.001225  3.95709  -0.001
N  N22  1  0.69733110  0.80725350  0.20388325  1  -0.273831  -0.085674  3.366629  -0.107  -0.219847  -0.064593  3.652617  -0.085  -0.252803  -0.05439  3.679733  -0.077  -0.343343  -0.201486  -0.069709  3.637168  -0.088
N  N23  1  0.30266820  0.19274670  0.79611555  1  -0.273812  -0.085696  3.366441  -0.107  -0.219946  -0.064602  3.652551  -0.085  -0.252885  -0.054397  3.67964  -0.077  -0.343369  -0.2016  -0.069713  3.637136  -0.088
N  N24  1  0.74293666  0.30649285  0.43605028  1  -0.376329  0.003431  2.562173  0.003  -0.353858  0.000686  2.782011  0.001  -0.364376  0.001335  2.79385  0.001  -0.285596  -0.346796  0.000119  2.774109  0.0
N  N25  1  0.25706870  0.69351000  0.56395249  1  -0.37628  0.003403  2.562002  0.003  -0.353807  0.000691  2.781829  0.001  -0.364324  0.001307  2.793666  0.001  -0.285603  -0.346743  0.000118  2.773926  0.0
Cl  Cl26  1  0.28452483  0.81287880  0.99737685  1  -0.433204  -0.176245  1.268132  -0.209  -0.44384  -0.126667  1.595832  -0.158  -0.489226  -0.097938  1.56909  -0.131  -0.236629  -0.418861  -0.143733  1.61493  -0.171
Cl  Cl27  1  0.71548963  0.18711883  0.00261924  1  -0.433187  -0.176248  1.26813  -0.209  -0.443841  -0.12667  1.595842  -0.158  -0.489232  -0.09794  1.569108  -0.131  -0.236632  -0.418864  -0.143732  1.614945  -0.171
Cl  Cl28  1  0.19584822  0.14025203  0.20603241  1  -0.483908  -0.134428  1.135711  -0.162  -0.49758  -0.083506  1.44292  -0.108  -0.53503  -0.061804  1.419267  -0.087  -0.27579  -0.475437  -0.096952  1.459481  -0.119
Cl  Cl29  1  0.80416430  0.85974820  0.79396455  1  -0.483838  -0.13443  1.135695  -0.162  -0.497579  -0.083505  1.442942  -0.108  -0.535038  -0.061802  1.419298  -0.087  -0.275788  -0.47544  -0.096958  1.459527  -0.119
