# generated using pymatgen
data_MgH8C6S2(NO4)2
_symmetry_space_group_name_H-M   'P 1'
_cell_length_a   5.02180295
_cell_length_b   7.41639475
_cell_length_c   7.75826618
_cell_angle_alpha   84.37546151
_cell_angle_beta   85.82356396
_cell_angle_gamma   72.44250905
_symmetry_Int_Tables_number   1
_chemical_formula_structural   MgH8C6S2(NO4)2
_chemical_formula_sum   'Mg1 H8 C6 S2 N2 O8'
_cell_volume   273.87423524
_cell_formula_units_Z   1
loop_
 _symmetry_equiv_pos_site_id
 _symmetry_equiv_pos_as_xyz
  1  'x, y, z'
loop_
 _atom_site_type_symbol
 _atom_site_label
 _atom_site_symmetry_multiplicity
 _atom_site_fract_x
 _atom_site_fract_y
 _atom_site_fract_z
 _atom_site_occupancy
 _atom_site_hle17_bader_spin_density
 _atom_site_hle17_ddec_charge
 _atom_site_hle17_ddec_spin_density
 _atom_site_hle17_ddec_sum_bond_order
 _atom_site_hle17_magmom
 _atom_site_hse06_10hf_bader_spin_density
 _atom_site_hse06_10hf_ddec_charge
 _atom_site_hse06_10hf_ddec_spin_density
 _atom_site_hse06_10hf_ddec_sum_bond_order
 _atom_site_hse06_10hf_magmom
 _atom_site_hse06_bader_spin_density
 _atom_site_hse06_ddec_charge
 _atom_site_hse06_ddec_spin_density
 _atom_site_hse06_ddec_sum_bond_order
 _atom_site_hse06_magmom
 _atom_site_pbe_bader_spin_density
 _atom_site_pbe_cm5_charge
 _atom_site_pbe_ddec_charge
 _atom_site_pbe_ddec_spin_density
 _atom_site_pbe_ddec_sum_bond_order
 _atom_site_pbe_magmom
Mg  Mg0  1  0.50000058  0.00000009  0.00000053  1  0  1.564967  0  1.0342  0  0  1.462636  0  1.278739  0  0  1.482628  0  1.246087  0  0  0.79621  1.448344  0  1.30179  0
H  H1  1  0.02279984  0.98682786  0.18219681  1  0  0.434209  0  0.867681  0  0  0.40124  0  0.934789  0  0  0.412072  0  0.918822  0  0  0.295831  0.393588  0  0.946084  0
H  H2  1  0.97720092  0.01317252  0.81780258  1  0  0.434204  0  0.867682  0  0  0.401237  0  0.934787  0  0  0.412069  0  0.91882  0  0  0.295822  0.393585  0  0.946081  0
H  H3  1  0.24841110  0.78546039  0.22408654  1  0  0.413572  0  0.893134  0  0  0.373666  0  0.972651  0  0  0.3843  0  0.957074  0  0  0.290421  0.366216  0  0.983538  0
H  H4  1  0.75159024  0.21453858  0.77591165  1  0  0.413576  0  0.893129  0  0  0.37367  0  0.972645  0  0  0.384305  0  0.957066  0  0  0.29042  0.36622  0  0.983531  0
H  H5  1  0.03269907  0.29933054  0.01805295  1  0  0.434497  0  0.868071  0  0  0.399888  0  0.936748  0  0  0.411334  0  0.920106  0  0  0.295768  0.391845  0  0.948433  0
H  H6  1  0.96729455  0.70067264  0.98195172  1  0  0.43442  0  0.868185  0  0  0.399828  0  0.936852  0  0  0.411276  0  0.920207  0  0  0.295727  0.391784  0  0.948538  0
H  H7  1  0.25683095  0.37133075  0.89961612  1  0  0.443423  0  0.853374  0  0  0.409927  0  0.919914  0  0  0.420774  0  0.904101  0  0  0.299067  0.402291  0  0.931042  0
H  H8  1  0.74316444  0.62866821  0.10038625  1  0  0.443413  0  0.853395  0  0  0.409915  0  0.91994  0  0  0.420762  0  0.904128  0  0  0.299068  0.402279  0  0.931069  0
C  C9  1  0.97861239  0.41636602  0.54149982  1  0  0.068621  0  3.811389  0  0  0.063553  0  4.097061  0  0  0.065003  0  4.119284  0  0  0.096577  0.062452  0  4.082176  0
C  C10  1  0.02138896  0.58363295  0.45849838  1  0  0.068564  0  3.811347  0  0  0.063524  0  4.097008  0  0  0.064974  0  4.119231  0  0  0.096564  0.062422  0  4.082123  0
C  C11  1  0.36520463  0.37699121  0.33034059  1  0  0.032952  0  3.646491  0  0  0.02728  0  3.942612  0  0  0.031531  0  3.953963  0  0  0.120966  0.024357  0  3.934924  0
C  C12  1  0.63479409  0.62300920  0.66965633  1  0  0.032965  0  3.646464  0  0  0.027289  0  3.942594  0  0  0.031542  0  3.953943  0  0  0.120961  0.024366  0  3.934908  0
C  C13  1  0.61351846  0.29303967  0.21461532  1  0  0.651717  0  3.953055  0  0  0.588631  0  4.267879  0  0  0.622446  0  4.256937  0  0  0.219907  0.565772  0  4.274547  0
C  C14  1  0.38648292  0.70695927  0.78538546  1  0  0.651736  0  3.953024  0  0  0.588625  0  4.267873  0  0  0.622439  0  4.256933  0  0  0.219865  0.565767  0  4.274541  0
S  S15  1  0.22591684  0.22199179  0.46467317  1  0  0.208121  0  2.501822  0  0  0.193988  0  2.836111  0  0  0.195871  0  2.837841  0  0  0.154786  0.191979  0  2.835568  0
S  S16  1  0.77408451  0.77800718  0.53532503  1  0  0.208111  0  2.501864  0  0  0.193986  0  2.83612  0  0  0.195869  0  2.837848  0  0  0.154783  0.191977  0  2.835577  0
N  N17  1  0.24002896  0.56087833  0.34083147  1  0  -0.294051  0  3.133584  0  0  -0.258988  0  3.395483  0  0  -0.268852  0  3.40998  0  0  -0.296106  -0.252015  0  3.38555  0
N  N18  1  0.75997179  0.43912206  0.65916664  1  0  -0.294122  0  3.13367  0  0  -0.259045  0  3.395574  0  0  -0.26891  0  3.410071  0  0  -0.296133  -0.252072  0  3.38564  0
O  O19  1  0.21249699  0.25441228  0.94836017  1  0  -0.927173  0  1.845565  0  0  -0.865666  0  2.040956  0  0  -0.883892  0  2.008206  0  0  -0.631283  -0.852813  0  2.06378  0
O  O20  1  0.78749987  0.74558803  0.05164716  1  0  -0.927103  0  1.845691  0  0  -0.865611  0  2.041007  0  0  -0.883838  0  2.008256  0  0  -0.631231  -0.852756  0  2.06383  0
O  O21  1  0.22687840  0.91918514  0.17929903  1  0  -0.923617  0  1.892103  0  0  -0.868748  0  2.092727  0  0  -0.885983  0  2.059974  0  0  -0.624063  -0.856484  0  2.11553  0
O  O22  1  0.77312295  0.08081383  0.82069917  1  0  -0.923612  0  1.892104  0  0  -0.868739  0  2.092723  0  0  -0.885975  0  2.059967  0  0  -0.624056  -0.856476  0  2.115523  0
O  O23  1  0.74855520  0.39954555  0.14060374  1  0  -0.59565  0  2.03972  0  0  -0.531986  0  2.263604  0  0  -0.557589  0  2.255285  0  0  -0.286447  -0.514378  0  2.269066  0
O  O24  1  0.25144757  0.60045480  0.85939685  1  0  -0.595671  0  2.039714  0  0  -0.531997  0  2.263601  0  0  -0.557604  0  2.255284  0  0  -0.286426  -0.514389  0  2.269062  0
O  O25  1  0.67286149  0.11454769  0.20130358  1  0  -0.729034  0  2.09017  0  0  -0.664053  0  2.331854  0  0  -0.688282  0  2.320006  0  0  -0.333509  -0.646934  0  2.339183  0
O  O26  1  0.32714127  0.88545268  0.79869571  1  0  -0.729034  0  2.09014  0  0  -0.664048  0  2.331842  0  0  -0.688272  0  2.319983  0  0  -0.333487  -0.646927  0  2.339164  0
