# generated using pymatgen
data_CdH16C10S4(NO2)2
_symmetry_space_group_name_H-M   'P 1'
_cell_length_a   5.85690134
_cell_length_b   8.43388661
_cell_length_c   9.53558724
_cell_angle_alpha   117.25401559
_cell_angle_beta   94.39167597
_cell_angle_gamma   96.50908620
_symmetry_Int_Tables_number   1
_chemical_formula_structural   CdH16C10S4(NO2)2
_chemical_formula_sum   'Cd1 H16 C10 S4 N2 O4'
_cell_volume   411.60872741
_cell_formula_units_Z   1
loop_
 _symmetry_equiv_pos_site_id
 _symmetry_equiv_pos_as_xyz
  1  'x, y, z'
loop_
 _atom_site_type_symbol
 _atom_site_label
 _atom_site_symmetry_multiplicity
 _atom_site_fract_x
 _atom_site_fract_y
 _atom_site_fract_z
 _atom_site_occupancy
 _atom_site_hle17_bader_spin_density
 _atom_site_hle17_ddec_charge
 _atom_site_hle17_ddec_spin_density
 _atom_site_hle17_ddec_sum_bond_order
 _atom_site_hle17_magmom
 _atom_site_hse06_10hf_bader_spin_density
 _atom_site_hse06_10hf_ddec_charge
 _atom_site_hse06_10hf_ddec_spin_density
 _atom_site_hse06_10hf_ddec_sum_bond_order
 _atom_site_hse06_10hf_magmom
 _atom_site_hse06_bader_spin_density
 _atom_site_hse06_ddec_charge
 _atom_site_hse06_ddec_spin_density
 _atom_site_hse06_ddec_sum_bond_order
 _atom_site_hse06_magmom
 _atom_site_pbe_bader_spin_density
 _atom_site_pbe_cm5_charge
 _atom_site_pbe_ddec_charge
 _atom_site_pbe_ddec_spin_density
 _atom_site_pbe_ddec_sum_bond_order
 _atom_site_pbe_magmom
Cd  Cd0  1  0.49998563  0.00000157  0.50000387  1  0  1.074372  0  1.901699  0  0  0.909738  0  2.376819  0  0  0.954792  0  2.332203  0  0  0.739921  0.874345  0  2.410856  0
H  H1  1  0.89187561  0.12104556  0.18283744  1  0  0.138254  0  0.930401  0  0  0.148202  0  0.991867  0  0  0.151346  0  0.990513  0  0  0.108915  0.145917  0  0.992807  0
H  H2  1  0.10813216  0.87895104  0.81715627  1  0  0.138296  0  0.930378  0  0  0.148287  0  0.991812  0  0  0.151435  0  0.990453  0  0  0.108917  0.146  0  0.992749  0
H  H3  1  0.00340797  0.20346868  0.38942780  1  0  0.13404  0  0.950066  0  0  0.143135  0  1.014933  0  0  0.144734  0  1.015815  0  0  0.107128  0.142281  0  1.013848  0
H  H4  1  0.99659486  0.79652925  0.61056824  1  0  0.134102  0  0.950045  0  0  0.143206  0  1.014904  0  0  0.144804  0  1.015787  0  0  0.107164  0.142351  0  1.01382  0
H  H5  1  0.17349975  0.50062251  0.40895878  1  0  0.082872  0  0.924279  0  0  0.103115  0  0.979364  0  0  0.103967  0  0.980224  0  0  0.094752  0.102516  0  0.978683  0
H  H6  1  0.82650672  0.49937684  0.59104013  1  0  0.082862  0  0.924235  0  0  0.103107  0  0.979344  0  0  0.103958  0  0.980205  0  0  0.094735  0.102507  0  0.978663  0
H  H7  1  0.89214833  0.45173927  0.30159581  1  0  0.079953  0  0.949806  0  0  0.09743  0  1.010436  0  0  0.098328  0  1.010963  0  0  0.093838  0.096682  0  1.010188  0
H  H8  1  0.10786191  0.54826143  0.69840176  1  0  0.07996  0  0.949818  0  0  0.097483  0  1.010396  0  0  0.098384  0  1.010916  0  0  0.093838  0.096732  0  1.010151  0
H  H9  1  0.04724933  0.31106896  0.04337773  1  0  0.088808  0  0.941682  0  0  0.10532  0  1.000661  0  0  0.106638  0  1.000975  0  0  0.092017  0.104304  0  1.000498  0
H  H10  1  0.95276202  0.68892908  0.95662096  1  0  0.088808  0  0.941656  0  0  0.105299  0  1.000649  0  0  0.106617  0  1.000965  0  0  0.092014  0.104284  0  1.000486  0
H  H11  1  0.22481297  0.52593947  0.16334379  1  0  0.091676  0  0.943766  0  0  0.108016  0  1.003326  0  0  0.109054  0  1.003882  0  0  0.091656  0.107224  0  1.002903  0
H  H12  1  0.77519245  0.47405446  0.83665187  1  0  0.091684  0  0.9437  0  0  0.108036  0  1.003239  0  0  0.109077  0  1.003798  0  0  0.091661  0.107243  0  1.002816  0
H  H13  1  0.53205554  0.39471450  0.23274172  1  0  0.119153  0  0.95279  0  0  0.130048  0  1.016246  0  0  0.13272  0  1.015194  0  0  0.101702  0.128307  0  1.016808  0
H  H14  1  0.46795247  0.60528346  0.76725359  1  0  0.11918  0  0.952802  0  0  0.130054  0  1.016272  0  0  0.132721  0  1.015229  0  0  0.101712  0.128313  0  1.016835  0
H  H15  1  0.43360622  0.22359665  0.03076452  1  0  0.136036  0  0.956755  0  0  0.143071  0  1.024804  0  0  0.146298  0  1.023409  0  0  0.101689  0.140091  0  1.027164  0
H  H16  1  0.56639372  0.77639590  0.96923238  1  0  0.136038  0  0.956713  0  0  0.143083  0  1.024741  0  0  0.146307  0  1.023347  0  0  0.101694  0.140102  0  1.027105  0
C  C17  1  0.02874680  0.21386540  0.28114395  1  0  -0.294148  0  3.559617  0  0  -0.330554  0  3.816181  0  0  -0.334568  0  3.823583  0  0  -0.156035  -0.327262  0  3.810285  0
C  C18  1  0.97125889  0.78612988  0.71885226  1  0  -0.294363  0  3.559564  0  0  -0.330801  0  3.816135  0  0  -0.334816  0  3.823535  0  0  -0.156094  -0.327503  0  3.810233  0
C  C19  1  0.05939369  0.40427662  0.29781929  1  0  -0.086804  0  3.663855  0  0  -0.127042  0  3.922885  0  0  -0.128132  0  3.93691  0  0  -0.162901  -0.126261  0  3.913188  0
C  C20  1  0.94061506  0.59571739  0.70217975  1  0  -0.086693  0  3.663727  0  0  -0.126998  0  3.922821  0  0  -0.128088  0  3.936847  0  0  -0.162859  -0.126218  0  3.913122  0
C  C21  1  0.17112946  0.39190350  0.15318828  1  0  -0.104659  0  3.671037  0  0  -0.144795  0  3.930925  0  0  -0.145993  0  3.94482  0  0  -0.168396  -0.143876  0  3.921571  0
C  C22  1  0.82888306  0.60809186  0.84680942  1  0  -0.104647  0  3.670887  0  0  -0.144758  0  3.930734  0  0  -0.145961  0  3.94463  0  0  -0.168355  -0.143838  0  3.92138  0
C  C23  1  0.38211462  0.29935722  0.14860385  1  0  -0.290155  0  3.570195  0  0  -0.326719  0  3.823993  0  0  -0.331247  0  3.831252  0  0  -0.157419  -0.323536  0  3.820298  0
C  C24  1  0.61789333  0.70064078  0.85139357  1  0  -0.290255  0  3.570176  0  0  -0.326784  0  3.823916  0  0  -0.331306  0  3.831172  0  0  -0.157449  -0.323601  0  3.820228  0
C  C25  1  0.05349513  0.19262124  0.67254286  1  0  0.316208  0  4.003208  0  0  0.294061  0  4.306802  0  0  0.316408  0  4.321607  0  0  0.161998  0.278828  0  4.295845  0
C  C26  1  0.94647552  0.80738870  0.32746647  1  0  0.315986  0  4.002419  0  0  0.293845  0  4.306053  0  0  0.316196  0  4.320859  0  0  0.16189  0.278611  0  4.295094  0
S  S27  1  0.29909362  0.13980371  0.22048892  1  0  1.165162  0  4.971643  0  0  1.111671  0  5.463452  0  0  1.147645  0  5.452086  0  0  0.473715  1.086091  0  5.471271  0
S  S28  1  0.70091302  0.86019704  0.77951370  1  0  1.165303  0  4.971736  0  0  1.111792  0  5.463561  0  0  1.147767  0  5.452193  0  0  0.47374  1.086217  0  5.471373  0
S  S29  1  0.32603530  0.24707699  0.74974063  1  0  -0.306761  0  2.149172  0  0  -0.267714  0  2.471945  0  0  -0.286179  0  2.46491  0  0  -0.107431  -0.254391  0  2.477098  0
S  S30  1  0.67391657  0.75292468  0.25026433  1  0  -0.306766  0  2.148781  0  0  -0.267727  0  2.471546  0  0  -0.286183  0  2.464493  0  0  -0.107482  -0.254408  0  2.476719  0
N  N31  1  0.85533159  0.15716331  0.61729911  1  0  -0.548766  0  2.928959  0  0  -0.490224  0  3.213365  0  0  -0.512779  0  3.219514  0  0  -0.394664  -0.473916  0  3.208866  0
N  N32  1  0.14466134  0.84284834  0.38272166  1  0  -0.548545  0  2.928622  0  0  -0.489962  0  3.212978  0  0  -0.512519  0  3.219126  0  0  -0.394505  -0.473649  0  3.208475  0
O  O33  1  0.26133159  0.95375075  0.09324910  1  0  -0.605092  0  1.913982  0  0  -0.555894  0  2.151258  0  0  -0.576841  0  2.14286  0  0  -0.315812  -0.540866  0  2.156396  0
O  O34  1  0.73868021  0.04625005  0.90675384  1  0  -0.605147  0  1.914053  0  0  -0.555913  0  2.151293  0  0  -0.576861  0  2.142899  0  0  -0.315799  -0.540887  0  2.156432  0
O  O35  1  0.46589650  0.18576576  0.36298544  1  0  -0.652965  0  1.97607  0  0  -0.596043  0  2.245176  0  0  -0.618847  0  2.233428  0  0  -0.33473  -0.579353  0  2.253174  0
O  O36  1  0.53410635  0.81424170  0.63701959  1  0  -0.652987  0  1.976118  0  0  -0.596068  0  2.245242  0  0  -0.618874  0  2.233494  0  0  -0.334768  -0.579382  0  2.253241  0
