# generated using pymatgen
data_MnHC2O3
_symmetry_space_group_name_H-M   'P 1'
_cell_length_a   3.36749014
_cell_length_b   8.62561283
_cell_length_c   10.25130240
_cell_angle_alpha   89.99967767
_cell_angle_beta   89.99955004
_cell_angle_gamma   101.83561019
_symmetry_Int_Tables_number   1
_chemical_formula_structural   MnHC2O3
_chemical_formula_sum   'Mn4 H4 C8 O12'
_cell_volume   291.43568035
_cell_formula_units_Z   4
loop_
 _symmetry_equiv_pos_site_id
 _symmetry_equiv_pos_as_xyz
  1  'x, y, z'
loop_
 _atom_site_type_symbol
 _atom_site_label
 _atom_site_symmetry_multiplicity
 _atom_site_fract_x
 _atom_site_fract_y
 _atom_site_fract_z
 _atom_site_occupancy
 _atom_site_hle17_ddec_charge
 _atom_site_hle17_ddec_spin_density
 _atom_site_hle17_ddec_sum_bond_order
 _atom_site_hle17_magmom
 _atom_site_hse06_10hf_ddec_charge
 _atom_site_hse06_10hf_ddec_spin_density
 _atom_site_hse06_10hf_ddec_sum_bond_order
 _atom_site_hse06_10hf_magmom
 _atom_site_hse06_ddec_charge
 _atom_site_hse06_ddec_spin_density
 _atom_site_hse06_ddec_sum_bond_order
 _atom_site_hse06_magmom
 _atom_site_pbe_cm5_charge
 _atom_site_pbe_ddec_charge
 _atom_site_pbe_ddec_spin_density
 _atom_site_pbe_ddec_sum_bond_order
 _atom_site_pbe_magmom
Mn  Mn0  1  0.70798970  0.92081007  0.38287310  1  1.246325  4.774975  1.749794  4.668  1.106114  4.701826  2.229515  4.533  1.158163  4.74505  2.162142  4.597  0.595832  1.067446  4.655881  2.277195  4.468
Mn  Mn1  1  0.29200791  0.57918669  0.88287532  1  1.246332  4.774945  1.74995  4.668  1.106049  4.70178  2.229702  4.533  1.15813  4.744997  2.162374  4.597  0.595809  1.067416  4.655819  2.277376  4.468
Mn  Mn2  1  0.29202012  0.07918767  0.61712395  1  1.246298  4.77497  1.74992  4.668  1.106081  4.701801  2.229654  4.533  1.158114  4.745047  2.162284  4.597  0.595827  1.067388  4.655864  2.277344  4.468
Mn  Mn3  1  0.70798517  0.42081329  0.11712467  1  1.246339  4.77494  1.74998  4.668  1.106055  4.701768  2.229751  4.533  1.158102  4.74503  2.162417  4.597  0.595823  1.067399  4.65581  2.277433  4.468
H  H4  1  0.63159660  0.82585102  0.64032559  1  0.416646  0.000833  0.887855  0.005  0.385833  0.003412  0.953481  0.008  0.395003  0.002325  0.940553  0.007  0.290713  0.379849  0.004367  0.961709  0.008
H  H5  1  0.36840321  0.67415021  0.14032544  1  0.416613  0.000834  0.887895  0.005  0.385833  0.003412  0.953473  0.008  0.394964  0.002325  0.940604  0.007  0.290703  0.379836  0.004367  0.961723  0.008
H  H6  1  0.36840500  0.17414194  0.35967634  1  0.416615  0.000837  0.887923  0.005  0.385809  0.003411  0.953519  0.008  0.394966  0.002324  0.940609  0.007  0.29073  0.379827  0.004366  0.961748  0.008
H  H7  1  0.63158560  0.32585327  0.85967454  1  0.416593  0.000832  0.88794  0.005  0.385815  0.003412  0.953513  0.008  0.394943  0.002327  0.940647  0.007  0.2907  0.379813  0.004367  0.961768  0.008
C  C8  1  0.84961180  0.44385874  0.41839834  1  0.201531  0.006763  3.850453  0.006  0.173629  0.015238  4.134921  0.012  0.184957  0.010634  4.148151  0.009  0.113058  0.166466  0.019423  4.126882  0.014
C  C9  1  0.15039115  0.05614667  0.91839030  1  0.201719  0.006724  3.850868  0.006  0.173867  0.015112  4.135235  0.012  0.185169  0.010479  4.148503  0.009  0.113114  0.166678  0.01941  4.127223  0.014
C  C10  1  0.15038539  0.55614363  0.58160749  1  0.201543  0.006765  3.850676  0.006  0.173684  0.015239  4.135103  0.012  0.185022  0.010622  4.148331  0.009  0.113069  0.166498  0.019422  4.127071  0.014
C  C11  1  0.84959838  0.94385210  0.08160871  1  0.201778  0.006752  3.850605  0.006  0.173882  0.015081  4.135016  0.012  0.18519  0.010508  4.148282  0.009  0.113169  0.16671  0.019412  4.127006  0.014
C  C12  1  0.05844573  0.60720536  0.44953451  1  0.212989  0.02382  3.804045  0.022  0.183618  0.03973  4.088876  0.033  0.201457  0.026859  4.096174  0.023  0.111435  0.168444  0.055783  4.086606  0.045
C  C13  1  0.94158500  0.89279579  0.94953356  1  0.212677  0.02387  3.803963  0.022  0.183324  0.039915  4.088658  0.033  0.20123  0.026701  4.095988  0.023  0.111346  0.168175  0.055825  4.0864  0.045
C  C14  1  0.94156055  0.39279118  0.55046840  1  0.213001  0.023835  3.80403  0.022  0.18363  0.039707  4.088829  0.033  0.20147  0.02682  4.09612  0.023  0.111474  0.168451  0.055786  4.086566  0.045
C  C15  1  0.05842936  0.10721142  0.05046642  1  0.212769  0.023849  3.803696  0.022  0.183306  0.039937  4.088533  0.033  0.201238  0.02727  4.095812  0.023  0.111393  0.168182  0.055833  4.086247  0.045
O  O16  1  0.12502408  0.73780635  0.38797022  1  -0.538928  0.038536  2.188839  0.013  -0.472157  0.056698  2.467718  0.025  -0.494971  0.050402  2.45269  0.021  -0.276658  -0.456991  0.06422  2.480076  0.031
O  O17  1  0.87496941  0.76218208  0.88796324  1  -0.53897  0.038532  2.188687  0.013  -0.472108  0.056691  2.467446  0.025  -0.495001  0.050171  2.452491  0.021  -0.276716  -0.456997  0.06422  2.479818  0.031
O  O18  1  0.87498390  0.26219374  0.61202976  1  -0.538935  0.038523  2.188977  0.013  -0.472134  0.056695  2.467842  0.025  -0.494945  0.050411  2.452815  0.021  -0.276668  -0.456972  0.064217  2.480203  0.031
O  O19  1  0.12503019  0.23781913  0.11203771  1  -0.538968  0.038543  2.188809  0.013  -0.472087  0.056663  2.467572  0.025  -0.494948  0.050564  2.452584  0.021  -0.276693  -0.456932  0.064217  2.479932  0.031
O  O20  1  0.66392953  0.37438852  0.32101600  1  -0.513058  0.027742  2.208739  0.014  -0.445958  0.035885  2.47112  0.018  -0.469939  0.032182  2.463542  0.015  -0.272235  -0.429248  0.040061  2.476193  0.022
O  O21  1  0.33606871  0.12560826  0.82101983  1  -0.512939  0.027746  2.209112  0.014  -0.445867  0.035867  2.471459  0.018  -0.46983  0.032178  2.463926  0.015  -0.272168  -0.429177  0.040057  2.476555  0.022
O  O22  1  0.33607135  0.62560915  0.67898496  1  -0.513051  0.027743  2.208979  0.014  -0.445893  0.035885  2.471341  0.018  -0.469908  0.032094  2.463778  0.015  -0.272206  -0.42924  0.04006  2.476417  0.022
O  O23  1  0.66393572  0.87439062  0.17898210  1  -0.512953  0.027733  2.209125  0.014  -0.445897  0.035877  2.471508  0.018  -0.469888  0.032192  2.463978  0.015  -0.272193  -0.429194  0.040059  2.476607  0.022
O  O24  1  0.71693452  0.92919020  0.59658055  1  -1.02549  0.127343  1.867261  0.087  -0.931128  0.147238  2.160945  0.095  -0.974729  0.132624  2.126309  0.082  -0.562162  -0.895974  0.16029  2.182174  0.107
O  O25  1  0.28306656  0.57081142  0.09657916  1  -1.025494  0.12734  1.867328  0.087  -0.931115  0.14724  2.16095  0.095  -0.974648  0.13262  2.126378  0.082  -0.562162  -0.895976  0.160289  2.1822  0.107
O  O26  1  0.28307629  0.07081581  0.40341650  1  -1.025503  0.12733  1.867358  0.087  -0.931102  0.147236  2.160995  0.095  -0.974694  0.132621  2.126383  0.082  -0.562179  -0.895942  0.160284  2.182224  0.107
O  O27  1  0.71692425  0.42918382  0.90341790  1  -1.025479  0.127339  1.867373  0.087  -0.931082  0.147235  2.160926  0.095  -0.974618  0.132614  2.126361  0.082  -0.562153  -0.895932  0.160283  2.182188  0.107
