# generated using pymatgen
data_HgH10C10Br2(N3O)2
_symmetry_space_group_name_H-M   'P 1'
_cell_length_a   4.03513375
_cell_length_b   6.28454349
_cell_length_c   14.77160163
_cell_angle_alpha   100.08191076
_cell_angle_beta   91.21248647
_cell_angle_gamma   97.25190881
_symmetry_Int_Tables_number   1
_chemical_formula_structural   HgH10C10Br2(N3O)2
_chemical_formula_sum   'Hg1 H10 C10 Br2 N6 O2'
_cell_volume   365.49916673
_cell_formula_units_Z   1
loop_
 _symmetry_equiv_pos_site_id
 _symmetry_equiv_pos_as_xyz
  1  'x, y, z'
loop_
 _atom_site_type_symbol
 _atom_site_label
 _atom_site_symmetry_multiplicity
 _atom_site_fract_x
 _atom_site_fract_y
 _atom_site_fract_z
 _atom_site_occupancy
 _atom_site_hle17_bader_spin_density
 _atom_site_hle17_ddec_charge
 _atom_site_hle17_ddec_spin_density
 _atom_site_hle17_ddec_sum_bond_order
 _atom_site_hle17_magmom
 _atom_site_hse06_10hf_bader_spin_density
 _atom_site_hse06_10hf_ddec_charge
 _atom_site_hse06_10hf_ddec_spin_density
 _atom_site_hse06_10hf_ddec_sum_bond_order
 _atom_site_hse06_10hf_magmom
 _atom_site_hse06_bader_spin_density
 _atom_site_hse06_ddec_charge
 _atom_site_hse06_ddec_spin_density
 _atom_site_hse06_ddec_sum_bond_order
 _atom_site_hse06_magmom
 _atom_site_pbe_bader_spin_density
 _atom_site_pbe_cm5_charge
 _atom_site_pbe_ddec_charge
 _atom_site_pbe_ddec_spin_density
 _atom_site_pbe_ddec_sum_bond_order
 _atom_site_pbe_magmom
Hg  Hg0  1  0.50001818  0.99999755  0.49999849  1  0  0.636782  0  2.153063  0  0  0.493686  0  2.652731  0  0  0.545636  0  2.619591  0  0  0.415787  0.458259  0  2.67549  0
H  H1  1  0.26475216  0.67200808  0.81320218  1  0  0.100111  0  0.931325  0  0  0.108351  0  0.990897  0  0  0.111509  0  0.989371  0  0  0.12105  0.106052  0  0.992187  0
H  H2  1  0.73524723  0.32799695  0.18679248  1  0  0.100117  0  0.931349  0  0  0.108356  0  0.990923  0  0  0.111513  0  0.989397  0  0  0.121033  0.106057  0  0.992214  0
H  H3  1  0.26263019  0.49341180  0.64626443  1  0  0.091522  0  0.963896  0  0  0.09464  0  1.037513  0  0  0.097884  0  1.034495  0  0  0.099867  0.092177  0  1.04002  0
H  H4  1  0.73737364  0.50657844  0.35373245  1  0  0.091491  0  0.963911  0  0  0.094603  0  1.03753  0  0  0.097844  0  1.034516  0  0  0.099851  0.09213  0  1.04005  0
H  H5  1  0.73153190  0.99476601  0.72139815  1  0  0.089921  0  0.977709  0  0  0.089483  0  1.056448  0  0  0.09372  0  1.052506  0  0  0.103197  0.086439  0  1.05939  0
H  H6  1  0.26844200  0.00522537  0.27860460  1  0  0.089815  0  0.977725  0  0  0.089354  0  1.05656  0  0  0.093596  0  1.052613  0  0  0.103129  0.086317  0  1.059469  0
H  H7  1  0.89101621  0.16171337  0.04200679  1  0  0.340775  0  0.924043  0  0  0.320756  0  0.986658  0  0  0.330517  0  0.978411  0  0  0.295736  0.313856  0  0.992468  0
H  H8  1  0.10898525  0.83829140  0.95799329  1  0  0.34081  0  0.924127  0  0  0.320773  0  0.986742  0  0  0.330534  0  0.978494  0  0  0.295747  0.313873  0  0.992552  0
H  H9  1  0.66099596  0.36521573  0.01237356  1  0  0.322485  0  0.927463  0  0  0.290131  0  1.020656  0  0  0.299536  0  1.011637  0  0  0.296579  0.283453  0  1.027035  0
H  H10  1  0.33898686  0.63478096  0.98762228  1  0  0.322544  0  0.927385  0  0  0.290196  0  1.020572  0  0  0.299601  0  1.011551  0  0  0.296573  0.283516  0  1.026959  0
C  C11  1  0.37025688  0.51988813  0.79337803  1  0  0.079053  0  3.661163  0  0  0.056171  0  3.919077  0  0  0.056792  0  3.935628  0  0  0.054556  0.055576  0  3.907933  0
C  C12  1  0.62973830  0.48010861  0.20661862  1  0  0.078983  0  3.661237  0  0  0.056107  0  3.919136  0  0  0.056733  0  3.935677  0  0  0.054557  0.055511  0  3.90799  0
C  C13  1  0.36839665  0.42166725  0.70065634  1  0  0.083  0  3.670014  0  0  0.053236  0  3.929525  0  0  0.057157  0  3.94711  0  0  0.04986  0.050775  0  3.917521  0
C  C14  1  0.63160819  0.57832937  0.29934379  1  0  0.083133  0  3.669947  0  0  0.05338  0  3.929425  0  0  0.057312  0  3.946994  0  0  0.04992  0.05092  0  3.917435  0
C  C15  1  0.62439497  0.14599179  0.74165894  1  0  0.074362  0  3.672636  0  0  0.039017  0  3.921687  0  0  0.042524  0  3.939897  0  0  0.0537  0.036429  0  3.910045  0
C  C16  1  0.37558440  0.85400138  0.25834130  1  0  0.074647  0  3.672439  0  0  0.039319  0  3.921386  0  0  0.042782  0  3.939677  0  0  0.053788  0.036735  0  3.909744  0
C  C17  1  0.62688926  0.24470394  0.83425372  1  0  0.052579  0  3.745293  0  0  0.065211  0  3.985175  0  0  0.061773  0  4.004971  0  0  0.120341  0.067166  0  3.971992  0
C  C18  1  0.37310632  0.75529591  0.16574590  1  0  0.052458  0  3.74555  0  0  0.065109  0  3.985386  0  0  0.061677  0  4.005175  0  0  0.120329  0.06706  0  3.972196  0
C  C19  1  0.78689739  0.13885473  0.90454253  1  0  0.583206  0  3.865819  0  0  0.533324  0  4.152857  0  0  0.562811  0  4.152668  0  0  0.238573  0.51355  0  4.152242  0
C  C20  1  0.21309835  0.86115972  0.09545964  1  0  0.583088  0  3.865932  0  0  0.533273  0  4.152861  0  0  0.562763  0  4.152669  0  0  0.238632  0.513506  0  4.152234  0
Br  Br21  1  0.86058876  0.74495548  0.55975774  1  0  -0.3654  0  1.22049  0  0  -0.309374  0  1.562778  0  0  -0.330603  0  1.542441  0  0  -0.190135  -0.294987  0  1.577573  0
Br  Br22  1  0.13946800  0.25507316  0.44026318  1  0  -0.365402  0  1.220486  0  0  -0.309408  0  1.562855  0  0  -0.330632  0  1.54251  0  0  -0.190177  -0.295026  0  1.577647  0
N  N23  1  0.49750954  0.43156550  0.86051755  1  0  -0.273446  0  3.071236  0  0  -0.237183  0  3.327581  0  0  -0.242972  0  3.342487  0  0  -0.289639  -0.232834  0  3.317486  0
N  N24  1  0.50248862  0.56843444  0.13948074  1  0  -0.273365  0  3.071385  0  0  -0.237118  0  3.327728  0  0  -0.242906  0  3.342633  0  0  -0.289616  -0.232772  0  3.317631  0
N  N25  1  0.49516737  0.23435490  0.67524046  1  0  -0.254026  0  3.17718  0  0  -0.19564  0  3.444044  0  0  -0.211282  0  3.465189  0  0  -0.294556  -0.184608  0  3.429153  0
N  N26  1  0.50482091  0.76563337  0.32476084  1  0  -0.254198  0  3.177113  0  0  -0.195807  0  3.443991  0  0  -0.211437  0  3.465119  0  0  -0.294596  -0.184774  0  3.42909  0
N  N27  1  0.78062482  0.23209231  0.99255484  1  0  -0.655563  0  3.13093  0  0  -0.615802  0  3.375654  0  0  -0.639838  0  3.36923  0  0  -0.560089  -0.59917  0  3.379731  0
N  N28  1  0.21936596  0.76790619  0.00743852  1  0  -0.655723  0  3.130694  0  0  -0.615975  0  3.375379  0  0  -0.640024  0  3.368973  0  0  -0.560207  -0.599345  0  3.379455  0
O  O29  1  0.92233628  0.97099417  0.87706516  1  0  -0.586991  0  1.929799  0  0  -0.539158  0  2.150353  0  0  -0.562338  0  2.145081  0  0  -0.306917  -0.522991  0  2.153503  0
O  O30  1  0.07767835  0.02901405  0.12293332  1  0  -0.586766  0  1.92997  0  0  -0.539011  0  2.150557  0  0  -0.562182  0  2.145276  0  0  -0.306873  -0.522851  0  2.153705  0
