# generated using pymatgen
data_AgH3C5SO3
_symmetry_space_group_name_H-M   'P 1'
_cell_length_a   5.14860717
_cell_length_b   7.51584036
_cell_length_c   7.65557267
_cell_angle_alpha   96.19003623
_cell_angle_beta   106.01872499
_cell_angle_gamma   93.07385271
_symmetry_Int_Tables_number   1
_chemical_formula_structural   AgH3C5SO3
_chemical_formula_sum   'Ag2 H6 C10 S2 O6'
_cell_volume   281.99855104
_cell_formula_units_Z   2
loop_
 _symmetry_equiv_pos_site_id
 _symmetry_equiv_pos_as_xyz
  1  'x, y, z'
loop_
 _atom_site_type_symbol
 _atom_site_label
 _atom_site_symmetry_multiplicity
 _atom_site_fract_x
 _atom_site_fract_y
 _atom_site_fract_z
 _atom_site_occupancy
 _atom_site_hle17_bader_spin_density
 _atom_site_hle17_ddec_charge
 _atom_site_hle17_ddec_spin_density
 _atom_site_hle17_ddec_sum_bond_order
 _atom_site_hle17_magmom
 _atom_site_hse06_10hf_bader_spin_density
 _atom_site_hse06_10hf_ddec_charge
 _atom_site_hse06_10hf_ddec_spin_density
 _atom_site_hse06_10hf_ddec_sum_bond_order
 _atom_site_hse06_10hf_magmom
 _atom_site_hse06_bader_spin_density
 _atom_site_hse06_ddec_charge
 _atom_site_hse06_ddec_spin_density
 _atom_site_hse06_ddec_sum_bond_order
 _atom_site_hse06_magmom
 _atom_site_pbe_bader_spin_density
 _atom_site_pbe_cm5_charge
 _atom_site_pbe_ddec_charge
 _atom_site_pbe_ddec_spin_density
 _atom_site_pbe_ddec_sum_bond_order
 _atom_site_pbe_magmom
Ag  Ag0  1  0.28283488  0.24020262  0.59670732  1  0  0.70019  0  1.29832  0  0  0.624116  0  1.704362  0  0  0.641209  0  1.662814  0  0  0.515271  0.611848  0  1.733278  0
Ag  Ag1  1  0.71716362  0.75980064  0.40329135  1  0  0.700174  0  1.29836  0  0  0.624081  0  1.704406  0  0  0.641178  0  1.662858  0  0  0.515253  0.611815  0  1.733321  0
H  H2  1  0.17390094  0.07121309  0.02750549  1  0  0.117656  0  0.956549  0  0  0.129228  0  1.012733  0  0  0.132  0  1.011532  0  0  0.111928  0.127202  0  1.013724  0
H  H3  1  0.82609907  0.92878614  0.97249305  1  0  0.117662  0  0.956591  0  0  0.129231  0  1.012774  0  0  0.132004  0  1.011573  0  0  0.111932  0.127205  0  1.013767  0
H  H4  1  0.96609178  0.48413923  0.28955744  1  0  0.125288  0  0.966713  0  0  0.129756  0  1.033696  0  0  0.134092  0  1.030033  0  0  0.107486  0.126576  0  1.036413  0
H  H5  1  0.03390634  0.51586133  0.71044480  1  0  0.125287  0  0.966726  0  0  0.129757  0  1.033704  0  0  0.134093  0  1.030039  0  0  0.107482  0.126576  0  1.036421  0
H  H6  1  0.88401648  0.21372309  0.77078251  1  0  0.122066  0  0.958384  0  0  0.126067  0  1.027358  0  0  0.130212  0  1.023889  0  0  0.106099  0.123041  0  1.029946  0
H  H7  1  0.11598150  0.78627614  0.22921695  1  0  0.122076  0  0.958386  0  0  0.126071  0  1.027372  0  0  0.130217  0  1.023902  0  0  0.106107  0.123046  0  1.02996  0
C  C8  1  0.24119746  0.20075342  0.99749745  1  0  -0.020078  0  3.701256  0  0  -0.052198  0  3.955351  0  0  -0.049628  0  3.972759  0  0  -0.078346  -0.053964  0  3.943828  0
C  C9  1  0.75880661  0.79924581  0.00249924  1  0  -0.020116  0  3.701247  0  0  -0.05221  0  3.955316  0  0  -0.049638  0  3.97272  0  0  -0.078327  -0.053984  0  3.943816  0
C  C10  1  0.47823783  0.29020190  0.11005935  1  0  -0.14105  0  3.660737  0  0  -0.118228  0  3.903172  0  0  -0.125667  0  3.925146  0  0  -0.013123  -0.113566  0  3.888831  0
C  C11  1  0.52176270  0.70980135  0.88993970  1  0  -0.141  0  3.660534  0  0  -0.118205  0  3.902987  0  0  -0.125646  0  3.92496  0  0  -0.01313  -0.113545  0  3.88865  0
C  C12  1  0.57885091  0.46050338  0.07667653  1  0  0.06166  0  3.729051  0  0  0.070089  0  3.956806  0  0  0.069933  0  3.982148  0  0  -0.003485  0.070085  0  3.939813  0
C  C13  1  0.42115281  0.53949317  0.92332112  1  0  0.061572  0  3.728982  0  0  0.070037  0  3.956718  0  0  0.06988  0  3.982062  0  0  -0.003556  0.070035  0  3.939724  0
C  C14  1  0.82957318  0.55313141  0.18864328  1  0  -0.154466  0  3.772916  0  0  -0.169484  0  4.033507  0  0  -0.170089  0  4.048188  0  0  -0.119861  -0.168964  0  4.023531  0
C  C15  1  0.17042714  0.44687050  0.81135821  1  0  -0.154423  0  3.77301  0  0  -0.169446  0  4.033577  0  0  -0.170052  0  4.04826  0  0  -0.119845  -0.168926  0  4.023598  0
C  C16  1  0.08330793  0.27870410  0.84746093  1  0  -0.085388  0  3.750184  0  0  -0.095613  0  4.015271  0  0  -0.0964  0  4.029643  0  0  -0.11072  -0.095161  0  4.005572  0
C  C17  1  0.91668850  0.72129915  0.15254258  1  0  -0.085324  0  3.750115  0  0  -0.095556  0  4.015204  0  0  -0.096344  0  4.029572  0  0  -0.110711  -0.095109  0  4.005511  0
S  S18  1  0.64352515  0.19177850  0.30944252  1  0  1.287899  0  5.627687  0  0  1.194081  0  6.129041  0  0  1.2416  0  6.108903  0  0  0.504539  1.161254  0  6.141737  0
S  S19  1  0.35647870  0.80821939  0.69055922  1  0  1.287965  0  5.627778  0  0  1.194127  0  6.129152  0  0  1.241655  0  6.10901  0  0  0.50453  1.161301  0  6.141848  0
O  O20  1  0.62729298  0.32041740  0.46644374  1  0  -0.674741  0  2.041452  0  0  -0.613332  0  2.327984  0  0  -0.636817  0  2.310957  0  0  -0.342373  -0.596539  0  2.339021  0
O  O21  1  0.37271290  0.67958049  0.53355838  1  0  -0.674774  0  2.041418  0  0  -0.61334  0  2.327919  0  0  -0.636827  0  2.310889  0  0  -0.342383  -0.596546  0  2.338956  0
O  O22  1  0.92662370  0.17445638  0.30743364  1  0  -0.669299  0  2.035177  0  0  -0.613246  0  2.318205  0  0  -0.636849  0  2.303099  0  0  -0.339013  -0.596404  0  2.327974  0
O  O23  1  0.07337799  0.82554016  0.69256493  1  0  -0.669291  0  2.035222  0  0  -0.613192  0  2.318194  0  0  -0.636808  0  2.303097  0  0  -0.338975  -0.596347  0  2.32796  0
O  O24  1  0.48766146  0.01858009  0.29507866  1  0  -0.669739  0  2.071991  0  0  -0.611256  0  2.352883  0  0  -0.633614  0  2.337179  0  0  -0.338376  -0.595418  0  2.363178  0
O  O25  1  0.51233617  0.98141644  0.70492045  1  0  -0.669807  0  2.072092  0  0  -0.611333  0  2.352988  0  0  -0.633694  0  2.337281  0  0  -0.338401  -0.59551  0  2.36331  0
