# generated using pymatgen
data_YH6C5O7
_symmetry_space_group_name_H-M   'P 1'
_cell_length_a   6.59530874
_cell_length_b   7.74730457
_cell_length_c   7.95352947
_cell_angle_alpha   100.46779025
_cell_angle_beta   100.81221590
_cell_angle_gamma   102.93389394
_symmetry_Int_Tables_number   1
_chemical_formula_structural   YH6C5O7
_chemical_formula_sum   'Y2 H12 C10 O14'
_cell_volume   378.28258550
_cell_formula_units_Z   2
loop_
 _symmetry_equiv_pos_site_id
 _symmetry_equiv_pos_as_xyz
  1  'x, y, z'
loop_
 _atom_site_type_symbol
 _atom_site_label
 _atom_site_symmetry_multiplicity
 _atom_site_fract_x
 _atom_site_fract_y
 _atom_site_fract_z
 _atom_site_occupancy
 _atom_site_hle17_bader_spin_density
 _atom_site_hle17_ddec_charge
 _atom_site_hle17_ddec_spin_density
 _atom_site_hle17_ddec_sum_bond_order
 _atom_site_hle17_magmom
 _atom_site_hse06_10hf_bader_spin_density
 _atom_site_hse06_10hf_ddec_charge
 _atom_site_hse06_10hf_ddec_spin_density
 _atom_site_hse06_10hf_ddec_sum_bond_order
 _atom_site_hse06_10hf_magmom
 _atom_site_hse06_bader_spin_density
 _atom_site_hse06_ddec_charge
 _atom_site_hse06_ddec_spin_density
 _atom_site_hse06_ddec_sum_bond_order
 _atom_site_hse06_magmom
 _atom_site_pbe_bader_spin_density
 _atom_site_pbe_cm5_charge
 _atom_site_pbe_ddec_charge
 _atom_site_pbe_ddec_spin_density
 _atom_site_pbe_ddec_sum_bond_order
 _atom_site_pbe_magmom
Y  Y0  1  0.54848020  0.62883648  0.80644315  1  0  2.05006  0  1.866467  0  0  1.847705  0  2.370534  0  0  1.923415  0  2.299955  0  0  1.307501  1.79386  0  2.417595  0
Y  Y1  1  0.45152237  0.37116765  0.19355825  1  0  2.050017  0  1.866691  0  0  1.847676  0  2.370772  0  0  1.923366  0  2.300217  0  0  1.307437  1.793827  0  2.417842  0
H  H2  1  0.90801434  0.21884089  0.86677485  1  0  0.132406  0  0.929699  0  0  0.144591  0  0.98963  0  0  0.147828  0  0.987641  0  0  0.117081  0.142229  0  0.991264  0
H  H3  1  0.09198799  0.78115234  0.13322702  1  0  0.132355  0  0.929695  0  0  0.14458  0  0.98961  0  0  0.147816  0  0.987623  0  0  0.117059  0.142214  0  0.991245  0
H  H4  1  0.03352821  0.07080672  0.76411468  1  0  0.126112  0  0.934713  0  0  0.137758  0  0.998567  0  0  0.140658  0  0.99668  0  0  0.112579  0.13566  0  1.000024  0
H  H5  1  0.96647631  0.92919342  0.23588001  1  0  0.126049  0  0.934652  0  0  0.13772  0  0.998507  0  0  0.140619  0  0.99662  0  0  0.112547  0.135618  0  0.999972  0
H  H6  1  0.85479644  0.13714839  0.46420124  1  0  0.10295  0  0.941719  0  0  0.117708  0  1.003158  0  0  0.119977  0  1.002231  0  0  0.103917  0.116051  0  1.003908  0
H  H7  1  0.14520761  0.86285035  0.53579689  1  0  0.1029  0  0.941802  0  0  0.117676  0  1.003221  0  0  0.119943  0  1.002295  0  0  0.103925  0.116015  0  1.003974  0
H  H8  1  0.69232117  0.00477948  0.57119261  1  0  0.121566  0  0.94355  0  0  0.138456  0  0.999631  0  0  0.14067  0  0.999463  0  0  0.112598  0.13684  0  0.99983  0
H  H9  1  0.30768327  0.99522060  0.42880709  1  0  0.121605  0  0.943556  0  0  0.138514  0  0.999607  0  0  0.140721  0  0.999443  0  0  0.112619  0.136894  0  0.999813  0
H  H10  1  0.87184022  0.66195013  0.59164157  1  0  0.438494  0  0.856395  0  0  0.405083  0  0.924038  0  0  0.416561  0  0.907294  0  0  0.304562  0.396902  0  0.935971  0
H  H11  1  0.12815765  0.33804857  0.40835429  1  0  0.438477  0  0.85639  0  0  0.405056  0  0.924055  0  0  0.416533  0  0.907312  0  0  0.304557  0.396875  0  0.935987  0
H  H12  1  0.02566975  0.73335878  0.78668255  1  0  0.441534  0  0.850098  0  0  0.409539  0  0.914162  0  0  0.421386  0  0.896778  0  0  0.305006  0.401065  0  0.926605  0
H  H13  1  0.97433238  0.26663861  0.21331250  1  0  0.441487  0  0.850182  0  0  0.409479  0  0.914268  0  0  0.421326  0  0.896884  0  0  0.304973  0.401007  0  0.926706  0
C  C14  1  0.15952014  0.34639004  0.76639871  1  0  0.753564  0  3.756284  0  0  0.703484  0  4.049384  0  0  0.738973  0  4.040752  0  0  0.23649  0.679249  0  4.054532  0
C  C15  1  0.84048274  0.65361001  0.23360199  1  0  0.753499  0  3.756307  0  0  0.703409  0  4.049461  0  0  0.738896  0  4.040831  0  0  0.236482  0.679172  0  4.054608  0
C  C16  1  0.97147726  0.18907140  0.74992455  1  0  -0.258275  0  3.68615  0  0  -0.297812  0  3.938481  0  0  -0.303084  0  3.944173  0  0  -0.161143  -0.294196  0  3.934671  0
C  C17  1  0.02852366  0.81092727  0.25007557  1  0  -0.258115  0  3.685938  0  0  -0.297738  0  3.938385  0  0  -0.303008  0  3.944069  0  0  -0.161103  -0.294122  0  3.934576  0
C  C18  1  0.79398385  0.14239552  0.58379534  1  0  -0.246776  0  3.661347  0  0  -0.288464  0  3.908846  0  0  -0.293765  0  3.915978  0  0  -0.160622  -0.284713  0  3.903946  0
C  C19  1  0.20601946  0.85760591  0.41620442  1  0  -0.246702  0  3.661374  0  0  -0.288431  0  3.908901  0  0  -0.293722  0  3.916024  0  0  -0.160628  -0.284677  0  3.904002  0
C  C20  1  0.64928605  0.26920578  0.58471894  1  0  0.773307  0  3.78061  0  0  0.725422  0  4.078298  0  0  0.761483  0  4.067275  0  0  0.245309  0.700685  0  4.085248  0
C  C21  1  0.35071717  0.73079558  0.41528709  1  0  0.773029  0  3.780792  0  0  0.725202  0  4.078395  0  0  0.761263  0  4.067371  0  0  0.245193  0.700474  0  4.085331  0
C  C22  1  0.37720191  0.96230436  0.97961833  1  0  0.554038  0  3.912521  0  0  0.505148  0  4.210213  0  0  0.535784  0  4.202106  0  0  0.229893  0.484288  0  4.215164  0
C  C23  1  0.62278789  0.03767794  0.02037571  1  0  0.553475  0  3.913079  0  0  0.50461  0  4.210777  0  0  0.535241  0  4.20268  0  0  0.22974  0.483731  0  4.215744  0
O  O24  1  0.29904398  0.40861704  0.91556232  1  0  -0.763504  0  2.058805  0  0  -0.690515  0  2.320272  0  0  -0.724636  0  2.310386  0  0  -0.398596  -0.666541  0  2.326033  0
O  O25  1  0.70096228  0.59137895  0.08443943  1  0  -0.763487  0  2.058899  0  0  -0.690458  0  2.320349  0  0  -0.724577  0  2.31046  0  0  -0.398599  -0.666485  0  2.32611  0
O  O26  1  0.19110745  0.42093113  0.64049401  1  0  -0.664962  0  1.981388  0  0  -0.597748  0  2.209032  0  0  -0.626107  0  2.199178  0  0  -0.318404  -0.578083  0  2.215279  0
O  O27  1  0.80889579  0.57907024  0.35951076  1  0  -0.664939  0  1.98137  0  0  -0.597734  0  2.208999  0  0  -0.626084  0  2.199137  0  0  -0.318406  -0.57807  0  2.215246  0
O  O28  1  0.63845225  0.35890384  0.73105354  1  0  -0.695782  0  2.014896  0  0  -0.634491  0  2.264175  0  0  -0.66424  0  2.253565  0  0  -0.366407  -0.613778  0  2.270842  0
O  O29  1  0.36155818  0.64110046  0.26894036  1  0  -0.695721  0  2.014776  0  0  -0.634454  0  2.264022  0  0  -0.664203  0  2.253414  0  0  -0.366374  -0.613743  0  2.270686  0
O  O30  1  0.53859107  0.27599367  0.43737599  1  0  -0.746615  0  2.059426  0  0  -0.685056  0  2.331496  0  0  -0.716697  0  2.318642  0  0  -0.40368  -0.662798  0  2.339607  0
O  O31  1  0.46139966  0.72399679  0.56261970  1  0  -0.746472  0  2.059656  0  0  -0.684905  0  2.331673  0  0  -0.716549  0  2.318819  0  0  -0.403632  -0.662656  0  2.339787  0
O  O32  1  0.30023473  0.79702061  0.89354864  1  0  -0.643845  0  2.075359  0  0  -0.582784  0  2.314955  0  0  -0.610332  0  2.304876  0  0  -0.323479  -0.563615  0  2.321396  0
O  O33  1  0.69976176  0.20299425  0.10646005  1  0  -0.643658  0  2.074894  0  0  -0.582567  0  2.314461  0  0  -0.610121  0  2.30439  0  0  -0.323407  -0.563392  0  2.320905  0
O  O34  1  0.27323858  0.06934725  0.03431128  1  0  -0.598088  0  2.065733  0  0  -0.540551  0  2.312078  0  0  -0.567503  0  2.304601  0  0  -0.328294  -0.521825  0  2.316637  0
O  O35  1  0.72674490  0.93066061  0.96570280  1  0  -0.597768  0  2.066628  0  0  -0.540235  0  2.312929  0  0  -0.567182  0  2.305454  0  0  -0.32819  -0.52151  0  2.317484  0
O  O36  1  0.87636303  0.70970398  0.71719593  1  0  -0.87614  0  1.846067  0  0  -0.817475  0  2.045624  0  0  -0.840363  0  2.010614  0  0  -0.614259  -0.801264  0  2.070067  0
O  O37  1  0.12363498  0.29030018  0.28279845  1  0  -0.876074  0  1.846124  0  0  -0.817399  0  2.045693  0  0  -0.840284  0  2.010685  0  0  -0.614244  -0.801188  0  2.07013  0
