# generated using pymatgen
data_CuH6C8(BrN)2
_symmetry_space_group_name_H-M   'P 1'
_cell_length_a   6.91136498
_cell_length_b   7.44170755
_cell_length_c   10.19897683
_cell_angle_alpha   104.77224713
_cell_angle_beta   90.01697224
_cell_angle_gamma   117.78218152
_symmetry_Int_Tables_number   1
_chemical_formula_structural   CuH6C8(BrN)2
_chemical_formula_sum   'Cu2 H12 C16 Br4 N4'
_cell_volume   444.37663119
_cell_formula_units_Z   2
loop_
 _symmetry_equiv_pos_site_id
 _symmetry_equiv_pos_as_xyz
  1  'x, y, z'
loop_
 _atom_site_type_symbol
 _atom_site_label
 _atom_site_symmetry_multiplicity
 _atom_site_fract_x
 _atom_site_fract_y
 _atom_site_fract_z
 _atom_site_occupancy
 _atom_site_pbe_cm5_charge
 _atom_site_pbe_ddec_charge
 _atom_site_pbe_ddec_spin_density
 _atom_site_pbe_ddec_sum_bond_order
 _atom_site_pbe_magmom
Cu  Cu0  1  0.96231815  0.92471891  0.17037534  1  0.527961  0.54468  -0.601382  2.362186  -0.456
Cu  Cu1  1  0.03764388  0.07523072  0.82963034  1  0.527999  0.544677  -0.601358  2.36215  -0.456
H  H2  1  0.52865546  0.69898130  0.99703513  1  0.099727  0.093888  -0.002015  1.066692  -0.002
H  H3  1  0.83162406  0.30109102  0.00273250  1  0.099614  0.093995  -0.002018  1.067343  -0.002
H  H4  1  0.47134966  0.30102546  0.00296749  1  0.099704  0.093906  -0.002015  1.066774  -0.002
H  H5  1  0.16836357  0.69888082  0.99727635  1  0.099636  0.094036  -0.002017  1.067374  -0.002
H  H6  1  0.95162293  0.18154427  0.40917577  1  0.096562  0.095958  -6.4e-05  1.058938  -0.001
H  H7  1  0.76926809  0.81842877  0.59068404  1  0.096612  0.095952  -6.1e-05  1.05862  -0.001
H  H8  1  0.04837387  0.81845455  0.59082928  1  0.09655  0.095907  -6.4e-05  1.059052  -0.001
H  H9  1  0.23073973  0.18155738  0.40931179  1  0.096617  0.095964  -6.2e-05  1.058563  -0.001
H  H10  1  0.88013730  0.39713003  0.61119950  1  0.085971  0.101055  -0.000175  1.057441  0.0
H  H11  1  0.48097990  0.60260980  0.38902194  1  0.085816  0.100399  -0.000173  1.057692  0.0
H  H12  1  0.11988252  0.60286563  0.38881183  1  0.085881  0.100884  -0.000175  1.05753  0.0
H  H13  1  0.51900390  0.39735729  0.61098602  1  0.085813  0.100399  -0.000173  1.057755  0.0
C  C14  1  0.50287492  0.80319097  0.08333567  1  0.052936  0.0688  -0.00335  3.878808  -0.003
C  C15  1  0.70100082  0.19678506  0.91660634  1  0.052632  0.067781  -0.003325  3.878508  -0.003
C  C16  1  0.49711717  0.19681577  0.91666792  1  0.052982  0.068721  -0.00335  3.879004  -0.003
C  C17  1  0.29898043  0.80320582  0.08339527  1  0.052559  0.067649  -0.003326  3.878659  -0.003
C  C18  1  0.63312538  0.05766132  0.29347010  1  0.115412  0.166958  -0.007158  3.946732  -0.006
C  C19  1  0.57526947  0.94222613  0.70647637  1  0.114933  0.168231  -0.007184  3.944066  -0.006
C  C20  1  0.36689130  0.94237719  0.70650313  1  0.115526  0.16711  -0.007156  3.946822  -0.006
C  C21  1  0.42473187  0.05779332  0.29350606  1  0.115048  0.168494  -0.007185  3.943595  -0.006
C  C22  1  0.79569187  0.18443934  0.40901278  1  -0.085795  -0.146227  -0.001892  3.968349  -0.002
C  C23  1  0.61036150  0.81536130  0.59097682  1  -0.085745  -0.146601  -0.001902  3.967639  -0.002
C  C24  1  0.20431172  0.81558169  0.59098367  1  -0.08585  -0.146265  -0.001891  3.968576  -0.002
C  C25  1  0.38967436  0.18466928  0.40902730  1  -0.085849  -0.146784  -0.001904  3.967817  -0.002
C  C26  1  0.75527690  0.30485443  0.52093843  1  -0.078678  -0.040235  -0.000833  3.934314  -0.001
C  C27  1  0.44879705  0.69505509  0.47914219  1  -0.078777  -0.039356  -0.000862  3.934017  -0.001
C  C28  1  0.24475990  0.69518090  0.47906069  1  -0.078627  -0.040072  -0.000833  3.934583  -0.001
C  C29  1  0.55121832  0.30498657  0.52085026  1  -0.078737  -0.039263  -0.000861  3.934106  -0.001
Br  Br30  1  0.13762100  0.27479944  0.13173052  1  -0.221528  -0.429639  -0.115045  1.453988  -0.114
Br  Br31  1  0.86234210  0.72515812  0.86827469  1  -0.221583  -0.429683  -0.115036  1.453964  -0.114
Br  Br32  1  0.80076218  0.60245937  0.23800057  1  -0.239949  -0.404373  -0.138573  1.307851  -0.137
Br  Br33  1  0.19923531  0.39750616  0.76199436  1  -0.239953  -0.404358  -0.138638  1.307602  -0.137
N  N34  1  0.66871023  0.93084911  0.18397848  1  -0.31864  -0.19588  -0.056884  3.573039  -0.074
N  N35  1  0.73836204  0.06894633  0.81598670  1  -0.31907  -0.19541  -0.057087  3.572775  -0.074
N  N36  1  0.33129313  0.06918302  0.81601906  1  -0.318639  -0.195841  -0.056886  3.572856  -0.074
N  N37  1  0.26161948  0.93105088  0.18402589  1  -0.31907  -0.195455  -0.057089  3.572853  -0.074
