# generated using pymatgen
data_CaCd2AsP
_symmetry_space_group_name_H-M   'P 1'
_cell_length_a   4.37998449
_cell_length_b   4.37998449
_cell_length_c   7.14125859
_cell_angle_alpha   90.00000000
_cell_angle_beta   90.00000000
_cell_angle_gamma   120.00000000
_symmetry_Int_Tables_number   1
_chemical_formula_structural   CaCd2AsP
_chemical_formula_sum   'Ca1 Cd2 As1 P1'
_cell_volume   118.64529950
_cell_formula_units_Z   1
loop_
 _symmetry_equiv_pos_site_id
 _symmetry_equiv_pos_as_xyz
  1  'x, y, z'
loop_
 _atom_site_type_symbol
 _atom_site_label
 _atom_site_symmetry_multiplicity
 _atom_site_fract_x
 _atom_site_fract_y
 _atom_site_fract_z
 _atom_site_occupancy
  Ca  Ca0  1  0.33333333  0.66666667  0.28488219  1
  Cd  Cd1  1  0.66666667  0.33333333  0.93182152  1
  Cd  Cd2  1  0.00000000  -0.00000000  0.66037398  1
  As  As3  1  0.66666667  0.33333333  0.52503900  1
  P  P4  1  0.00000000  -0.00000000  0.05106330  1
